       8
 i =        1, E =       -44.9783961313
  C         0.8502657093        2.7276532003        2.7276530747
  C        -0.0243099603       -0.0243191819       -0.0243087976
  C         0.8951823431        0.8951860533        0.8951837931
  C        -0.0555691821        1.7963584137        1.7963490330
  C         2.7276458926        2.7276587225        0.8502632170
  C         1.7963520017       -0.0555589665        1.7963578154
  C         2.7276655221        0.8502601199        2.7276585623
  C         1.7963551897        1.7963488980       -0.0555692122
       8
 i =        2, E =       -44.9800736431
  C         0.8712586721        2.7220043471        2.7220044361
  C        -0.0537223855       -0.0537213554       -0.0537225174
  C         0.8754759733        0.8754759136        0.8754756800
  C        -0.0538266845        1.7956503246        1.7956523465
  C         2.7220049680        2.7220042945        0.8712590344
  C         1.7956517154       -0.0538274454        1.7956516089
  C         2.7220040161        0.8712594475        2.7220047501
  C         1.7956518249        1.7956515607       -0.0538268328
       8
 i =        3, E =       -44.9805349087
  C         0.8669561660        2.7135220700        2.7135220893
  C        -0.0662430264       -0.0662418015       -0.0662430199
  C         0.8620325903        0.8620320518        0.8620324881
  C        -0.0602988080        1.7891108762        1.7891123724
  C         2.7135230797        2.7135212688        0.8669565295
  C         1.7891118710       -0.0603005909        1.7891109799
  C         2.7135206236        0.8669568562        2.7135216280
  C         1.7891113700        1.7891122831       -0.0602988516
       8
 i =        4, E =       -44.9808235684
  C         0.8449859047        2.6905764062        2.6905768074
  C        -0.0874191848       -0.0874187282       -0.0874194206
  C         0.8362887866        0.8362882301        0.8362887284
  C        -0.0829953398        1.7681715643        1.7681718944
  C         2.6905775014        2.6905760169        0.8449862263
  C         1.7681713380       -0.0829968147        1.7681708661
  C         2.6905748688        0.8449859723        2.6905754707
  C         1.7681714602        1.7681723548       -0.0829950607
       8
 i =        5, E =       -44.9809811009
  C         0.8493389823        2.6985732504        2.6985732990
  C        -0.0766485049       -0.0766486174       -0.0766484730
  C         0.8478612147        0.8478609930        0.8478612557
  C        -0.0764801434        1.7743185670        1.7743184629
  C         2.6985733976        2.6985731457        0.8493390354
  C         1.7743184981       -0.0764803883        1.7743183791
  C         2.6985730558        0.8493389346        2.6985731239
  C         1.7743183826        1.7743186386       -0.0764800459
       8
 i =        6, E =       -44.9809862209
  C         0.8483633708        2.6981670887        2.6981672039
  C        -0.0767512375       -0.0767512280       -0.0767513056
  C         0.8478611843        0.8478611051        0.8478611732
  C        -0.0770163299        1.7733095194        1.7733096095
  C         2.6981672673        2.6981671575        0.8483634061
  C         1.7733095490       -0.0770163705        1.7733095744
  C         2.6981670288        0.8483633616        2.6981671096
  C         1.7733096185        1.7733096172       -0.0770162338
       8
 i =        7, E =       -44.9809862201
  C         0.8483633708        2.6981670887        2.6981672039
  C        -0.0767512375       -0.0767512280       -0.0767513056
  C         0.8478611843        0.8478611051        0.8478611732
  C        -0.0770163299        1.7733095194        1.7733096095
  C         2.6981672673        2.6981671575        0.8483634061
  C         1.7733095490       -0.0770163705        1.7733095744
  C         2.6981670288        0.8483633616        2.6981671096
  C         1.7733096185        1.7733096172       -0.0770162338
