       8
 i =        1, E =       -44.9782582507
  C         0.8590283368        2.7187019286        2.7187010592
  C        -0.0223952045       -0.0224021800       -0.0223940157
  C         0.8939901356        0.8940019445        0.8939941150
  C        -0.0475943691        1.7944648731        1.7944655370
  C         2.7186966696        2.7186985554        0.8590226667
  C         1.7944552690       -0.0475908822        1.7944526011
  C         2.7187008067        0.8590137053        2.7186977004
  C         1.7944630352        1.7944565165       -0.0475950910
       8
 i =        2, E =       -44.9791479881
  C         0.8706525932        2.7140738419        2.7140744709
  C        -0.0428279533       -0.0428263260       -0.0428277024
  C         0.8801118193        0.8801113916        0.8801117416
  C        -0.0487343523        1.7933024578        1.7933025831
  C         2.7140736466        2.7140727566        0.8706522709
  C         1.7933014722       -0.0487357611        1.7933015551
  C         2.7140730110        0.8706527827        2.7140722506
  C         1.7933015906        1.7933017691       -0.0487350772
       8
 i =        3, E =       -44.9796489231
  C         0.8693158607        2.7048389753        2.7048391938
  C        -0.0609609649       -0.0609585485       -0.0609612933
  C         0.8625283589        0.8625247024        0.8625269826
  C        -0.0545588571        1.7859536104        1.7859534620
  C         2.7048401933        2.7048396494        0.8693177597
  C         1.7859562310       -0.0545601098        1.7859569855
  C         2.7048389158        0.8693205745        2.7048396604
  C         1.7859539287        1.7859560910       -0.0545587538
       8
 i =        4, E =       -44.9795557926
  C         0.8504920988        2.6747180932        2.6747175126
  C        -0.1020186006       -0.1020157270       -0.1020195810
  C         0.8195919712        0.8195844675        0.8195892834
  C        -0.0796410840        1.7586344860        1.7586334364
  C         2.6747213248        2.6747216937        0.8504965555
  C         1.7586416202       -0.0796410888        1.7586435780
  C         2.6747198866        0.8505023330        2.6747226594
  C         1.7586359763        1.7586408997       -0.0796395125
       8
 i =        5, E =       -44.9803128030
  C         0.8526397732        2.6875804095        2.6875802846
  C        -0.0775230120       -0.0775214904       -0.0775231826
  C         0.8431843411        0.8431820023        0.8431835004
  C        -0.0714351777        1.7692611769        1.7692609572
  C         2.6875815000        2.6875813159        0.8526411998
  C         1.7692632229       -0.0714354682        1.7692637860
  C         2.6875806400        0.8526429753        2.6875814111
  C         1.7692616304        1.7692630513       -0.0714348827
       8
 i =        6, E =       -44.9804147371
  C         0.8468154950        2.6855579922        2.6855578634
  C        -0.0751143307       -0.0751137627       -0.0751143121
  C         0.8446477093        0.8446471137        0.8446475665
  C        -0.0750274623        1.7662621697        1.7662620721
  C         2.6855582520        2.6855581531        0.8468159120
  C         1.7662627441       -0.0750276362        1.7662628402
  C         2.6855578748        0.8468165424        2.6855581279
  C         1.7662622249        1.7662625976       -0.0750275056
       8
 i =        7, E =       -44.9804318786
  C         0.8433701867        2.6832772187        2.6832772199
  C        -0.0763673224       -0.0763672753       -0.0763672798
  C         0.8431002363        0.8431004229        0.8431002693
  C        -0.0770919720        1.7632705430        1.7632705152
  C         2.6832772140        2.6832771993        0.8433701260
  C         1.7632703389       -0.0770919688        1.7632703485
  C         2.6832771413        0.8433699926        2.6832771441
  C         1.7632705068        1.7632704185       -0.0770920596
       8
 i =        8, E =       -44.9804323704
  C         0.8433908149        2.6833430805        2.6833430433
  C        -0.0764773134       -0.0764773197       -0.0764773059
  C         0.8432203562        0.8432203650        0.8432203509
  C        -0.0768136344        1.7633010618        1.7633010167
  C         2.6833430672        2.6833430897        0.8433908119
  C         1.7633010464       -0.0768136303        1.7633010510
  C         2.6833430586        0.8433908398        2.6833430818
  C         1.7633010196        1.7633010521       -0.0768136612
       8
 i =        9, E =       -44.9804323699
  C         0.8433908149        2.6833430805        2.6833430433
  C        -0.0764773134       -0.0764773197       -0.0764773059
  C         0.8432203562        0.8432203650        0.8432203509
  C        -0.0768136344        1.7633010618        1.7633010167
  C         2.6833430672        2.6833430897        0.8433908119
  C         1.7633010464       -0.0768136303        1.7633010510
  C         2.6833430586        0.8433908398        2.6833430818
  C         1.7633010196        1.7633010521       -0.0768136612
