       8
 i =        1, E =       -44.9747347883
  C         0.8340591306        2.7444912394        2.7444838915
  C        -0.0281983177       -0.0282121391       -0.0281815310
  C         0.8973471701        0.8973611341        0.8973393598
  C        -0.0693659173        1.8008560380        1.8008530931
  C         2.7444623450        2.7444725445        0.8340717148
  C         1.8008407851       -0.0693611414        1.8008521571
  C         2.7445040137        0.8340496029        2.7444801419
  C         1.8008537574        1.8008453398       -0.0693963854
       8
 i =        2, E =       -44.9782895416
  C         0.8788693070        2.7423116992        2.7423153250
  C        -0.0763870159       -0.0763844738       -0.0763897785
  C         0.8661543141        0.8661528430        0.8661553890
  C        -0.0582827227        1.8044521414        1.8044586022
  C         2.7423188181        2.7423164460        0.8788674310
  C         1.8044561385       -0.0582850099        1.8044574587
  C         2.7423122107        0.8788711632        2.7423166334
  C         1.8044544995        1.8044578320       -0.0582787083
       8
 i =        3, E =       -44.9787830049
  C         0.8665824171        2.7360559104        2.7360572523
  C        -0.0698530227       -0.0698531031       -0.0698517368
  C         0.8681766842        0.8681766770        0.8681775459
  C        -0.0673511802        1.8008783331        1.8008792222
  C         2.7360563735        2.7360569423        0.8665829051
  C         1.8008789105       -0.0673519030        1.8008790769
  C         2.7360571739        0.8665822115        2.7360574216
  C         1.8008788040        1.8008789030       -0.0673504114
       8
 i =        4, E =       -44.9789263265
  C         0.8590249808        2.7302606932        2.7302611456
  C        -0.0736729708       -0.0736729488       -0.0736726990
  C         0.8619034188        0.8619033176        0.8619041788
  C        -0.0747528171        1.7959139758        1.7959139475
  C         2.7302604498        2.7302606806        0.8590253087
  C         1.7959140117       -0.0747531512        1.7959137577
  C         2.7302607432        0.8590246542        2.7302609527
  C         1.7959139558        1.7959135455       -0.0747524357
       8
 i =        5, E =       -44.9789551285
  C         0.8569544937        2.7271603094        2.7271599815
  C        -0.0774546014       -0.0774551249       -0.0774539586
  C         0.8574196724        0.8574197442        0.8574195088
  C        -0.0778407569        1.7925567800        1.7925563688
  C         2.7271595177        2.7271598388        0.8569549528
  C         1.7925563834       -0.0778404912        1.7925566049
  C         2.7271604608        0.8569542165        2.7271600382
  C         1.7925567277        1.7925564062       -0.0778410694
       8
 i =        6, E =       -44.9789562897
  C         0.8570483334        2.7270605739        2.7270607653
  C        -0.0779241184       -0.0779238757       -0.0779244933
  C         0.8570334347        0.8570332882        0.8570335758
  C        -0.0779475704        1.7921164500        1.7921166844
  C         2.7270609793        2.7270606819        0.8570481886
  C         1.7921165907       -0.0779476878        1.7921165903
  C         2.7270603418        0.8570484529        2.7270606898
  C         1.7921165236        1.7921165410       -0.0779472656
       8
 i =        7, E =       -44.9789562893
  C         0.8570483334        2.7270605739        2.7270607653
  C        -0.0779241184       -0.0779238757       -0.0779244933
  C         0.8570334347        0.8570332882        0.8570335758
  C        -0.0779475704        1.7921164500        1.7921166844
  C         2.7270609793        2.7270606819        0.8570481886
  C         1.7921165907       -0.0779476878        1.7921165903
  C         2.7270603418        0.8570484529        2.7270606898
  C         1.7921165236        1.7921165410       -0.0779472656
