       8
 i =        1, E =       -44.9423880583
  C         0.8921063420        2.6647076690        2.6647122679
  C         0.0102122134        0.0102079978        0.0102108904
  C         0.8943589231        0.8943612170        0.8943652467
  C         0.0082877255        1.7793916077        1.7793802956
  C         2.6647040143        2.6647133132        0.8921006943
  C         1.7793848670        0.0082921087        1.7793886189
  C         2.6647178525        0.8921051535        2.6647090464
  C         1.7793845385        1.7793774160        0.0082894059
       8
 i =        2, E =       -44.9425325586
  C         0.8890720001        2.6593219474        2.6593232418
  C         0.0056050650        0.0056030404        0.0056048118
  C         0.8904489904        0.8904494120        0.8904516316
  C         0.0044660067        1.7745012310        1.7744961969
  C         2.6593194190        2.6593235308        0.8890692425
  C         1.7744986748        0.0044679386        1.7745000724
  C         2.6593261163        0.8890714839        2.6593224859
  C         1.7744973922        1.7744947817        0.0044662346
       8
 i =        3, E =       -44.9425729108
  C         0.8830557402        2.6520795274        2.6520777869
  C        -0.0026419757       -0.0026406997       -0.0026413747
  C         0.8825380796        0.8825372873        0.8825361831
  C        -0.0022194993        1.7673215009        1.7673249867
  C         2.6520805047        2.6520774051        0.8830575659
  C         1.7673238450       -0.0022209136        1.7673224429
  C         2.6520762143        0.8830562240        2.6520790910
  C         1.7673234654        1.7673259218       -0.0022200965
       8
 i =        4, E =       -44.9425939772
  C         0.8852041470        2.6551284626        2.6551282480
  C         0.0002477409        0.0002476944        0.0002478549
  C         0.8852831432        0.8852830405        0.8852831654
  C         0.0001532950        1.7701606698        1.7701606474
  C         2.6551282470        2.6551281943        0.8852041136
  C         1.7701608218        0.0001533163        1.7701607095
  C         2.6551284067        0.8852041941        2.6551284672
  C         1.7701604676        1.7701606039        0.0001531849
       8
 i =        5, E =       -44.9425941391
  C         0.8850165085        2.6549724123        2.6549723144
  C        -0.0000286043       -0.0000285441       -0.0000285651
  C         0.8849701422        0.8849701008        0.8849700497
  C         0.0000018055        1.7699800444        1.7699802146
  C         2.6549724580        2.6549722905        0.8850166047
  C         1.7699801733        0.0000017354        1.7699800972
  C         2.6549722449        0.8850165338        2.6549724007
  C         1.7699801283        1.7699802553        0.0000017760
       8
 i =        6, E =       -44.9425941382
  C         0.8850165085        2.6549724123        2.6549723144
  C        -0.0000286043       -0.0000285441       -0.0000285651
  C         0.8849701422        0.8849701008        0.8849700497
  C         0.0000018055        1.7699800444        1.7699802146
  C         2.6549724580        2.6549722905        0.8850166047
  C         1.7699801733        0.0000017354        1.7699800972
  C         2.6549722449        0.8850165338        2.6549724007
  C         1.7699801283        1.7699802553        0.0000017760
