       6
 i =        1, E =       -34.4513540935
  H         5.6905946216        7.4604977560        8.0793577029
  H         7.0489215726        7.4981378761        7.3577390594
  O         6.0864860913        7.4999968313        7.1983290669
  H         9.3239450539        8.2621720810        6.9714927990
  H         9.3064415555        6.7382370688        6.9233907850
  O         8.9930796907        7.4879843939        7.4523421987
       6
 i =        2, E =       -34.4515444592
  H         5.6905173380        7.4599993884        8.0920268763
  H         7.0589800404        7.4978531539        7.3677300176
  O         6.0914631450        7.5005179304        7.2093960315
  H         9.3250376445        8.2716527790        6.9713109578
  H         9.3072085896        6.7301424113        6.9232534322
  O         8.9915231258        7.4892439677        7.4467187173
       6
 i =        3, E =       -34.4516411447
  H         5.6962190899        7.4594980306        8.1050849146
  H         7.0645838268        7.4974577220        7.3826141874
  O         6.0952965300        7.4997076881        7.2203220668
  H         9.3277733141        8.2769688801        6.9667910161
  H         9.3096480530        6.7271903268        6.9194434367
  O         8.9897304137        7.4911473351        7.4350563485
       6
 i =        4, E =       -34.4516305159
  H         5.7088163575        7.4589389536        8.1215378737
  H         7.0677704250        7.4970040406        7.4059810142
  O         6.0975848138        7.5002868658        7.2302344234
  H         9.3360163078        8.2869498181        6.9514242267
  H         9.3167922559        6.7240723618        6.9066475523
  O         8.9898922308        7.4966010844        7.4034055317
       6
 i =        5, E =       -34.4518055773
  H         5.7031638831        7.4593039077        8.1121531161
  H         7.0644605575        7.4975687563        7.3929230555
  O         6.0959152910        7.4996698584        7.2243488328
  H         9.3346141250        8.2785036024        6.9528445963
  H         9.3155708962        6.7317999712        6.9082868155
  O         8.9981052506        7.4954573376        7.4201448605
       6
 i =        6, E =       -34.4518771876
  H         5.7014351068        7.4593800463        8.1111706030
  H         7.0650769624        7.4982677853        7.3891883494
  O         6.0968588458        7.4990872756        7.2247373129
  H         9.3387520952        8.2775948670        6.9443588969
  H         9.3191120503        6.7368578589        6.9019704532
  O         8.9973245361        7.4983704330        7.4132624633
       6
 i =        7, E =       -34.4518986640
  H         5.7028745442        7.4596787295        8.1065534479
  H         7.0609698039        7.4999798285        7.3836030443
  O         6.0940579183        7.5007850338        7.2187744299
  H         9.3454553551        8.2794228349        6.9291953071
  H         9.3254062436        6.7419506245        6.8900927348
  O         9.0026429436        7.5026367074        7.4013048715
       6
 i =        8, E =       -34.4519209984
  H         5.7005384313        7.4598049921        8.1032460484
  H         7.0604219235        7.5004683463        7.3783481582
  O         6.0932451039        7.4995696155        7.2163483903
  H         9.3419506602        8.2774046831        6.9342305934
  H         9.3231984236        6.7408194706        6.8935523433
  O         8.9968763952        7.5000257718        7.4070091162
       6
 i =        9, E =       -34.4519262265
  H         5.7005097120        7.4597085358        8.1057649917
  H         7.0623362619        7.5006109406        7.3791394385
  O         6.0943712595        7.4999326651        7.2194081288
  H         9.3404710552        8.2781294100        6.9351386564
  H         9.3224980646        6.7390654050        6.8937568787
  O         9.0004962352        7.4991400242        7.4083561949
       6
 i =       10, E =       -34.4519300935
  H         5.7015790276        7.4597696629        8.1053279369
  H         7.0617342113        7.5010054288        7.3785190061
  O         6.0938998214        7.5000556834        7.2182750800
  H         9.3406172617        8.2784144195        6.9331283380
  H         9.3228958914        6.7399560881        6.8923049537
  O         8.9998233301        7.4999182702        7.4067394773
       6
 i =       11, E =       -34.4519311612
  H         5.7024777890        7.4598097360        8.1055066823
  H         7.0618067211        7.5014200651        7.3777218234
  O         6.0938496844        7.4999223184        7.2180307964
  H         9.3394251437        8.2785012826        6.9325664110
  H         9.3224053084        6.7401139463        6.8917821264
  O         8.9995269131        7.4998985241        7.4068195340
       6
 i =       12, E =       -34.4519311612
  H         5.7024777890        7.4598097360        8.1055066823
  H         7.0618067211        7.5014200651        7.3777218234
  O         6.0938496844        7.4999223184        7.2180307964
  H         9.3394251437        8.2785012826        6.9325664110
  H         9.3224053084        6.7401139463        6.8917821264
  O         8.9995269131        7.4998985241        7.4068195340
