       8
 i =        1, E =       -45.0972736697
  C         0.8930468057        2.6666718868        2.6666760210
  C         0.0117468328        0.0117423677        0.0117447761
  C         0.8962729110        0.8962755530        0.8962802058
  C         0.0089680894        1.7813740942        1.7813631175
  C         2.6666686017        2.6666772462        0.8930403346
  C         1.7813678685        0.0089728144        1.7813706398
  C         2.6666816827        0.8930454883        2.6666735696
  C         1.7813663398        1.7813597873        0.0089704494
       8
 i =        2, E =       -45.0973368682
  C         0.8916868347        2.6632358160        2.6632390352
  C         0.0099133902        0.0099091761        0.0099115899
  C         0.8949224820        0.8949240577        0.8949288470
  C         0.0069940365        1.7782509342        1.7782408028
  C         2.6632317980        2.6632402570        0.8916804408
  C         1.7782451823        0.0069982363        1.7782478219
  C         2.6632443153        0.8916852465        2.6632371746
  C         1.7782432845        1.7782374790        0.0069958453
       8
 i =        3, E =       -45.0973994596
  C         0.8870552137        2.6568297758        2.6568311297
  C         0.0045905591        0.0045872877        0.0045896172
  C         0.8899306014        0.8899308722        0.8899352076
  C         0.0016196837        1.7721544435        1.7721469156
  C         2.6568255019        2.6568319694        0.8870501387
  C         1.7721505215        0.0016226385        1.7721522193
  C         2.6568355740        0.8870540007        2.6568306574
  C         1.7721479533        1.7721441256        0.0016205144
       8
 i =        4, E =       -45.0974175337
  C         0.8842604573        2.6542125139        2.6542128275
  C         0.0011107446        0.0011085654        0.0011104481
  C         0.8862833547        0.8862832958        0.8862864011
  C        -0.0011572203        1.7694231287        1.7694184182
  C         2.6542093446        2.6542132510        0.8842572401
  C         1.7694210135       -0.0011553566        1.7694217585
  C         2.6542160510        0.8842598221        2.6542131098
  C         1.7694186540        1.7694165387       -0.0011568595
       8
 i =        5, E =       -45.0974229507
  C         0.8843284031        2.6549091149        2.6549093543
  C         0.0006348908        0.0006333862        0.0006347344
  C         0.8856018304        0.8856019913        0.8856040416
  C        -0.0007770189        1.7699222373        1.7699189375
  C         2.6549070668        2.6549096153        0.8843262849
  C         1.7699208790       -0.0007756272        1.7699212709
  C         2.6549117114        0.8843281139        2.6549095789
  C         1.7699191710        1.7699177370       -0.0007767271
       8
 i =        6, E =       -45.0974229501
  C         0.8843284031        2.6549091149        2.6549093543
  C         0.0006348908        0.0006333862        0.0006347344
  C         0.8856018304        0.8856019913        0.8856040416
  C        -0.0007770189        1.7699222373        1.7699189375
  C         2.6549070668        2.6549096153        0.8843262849
  C         1.7699208790       -0.0007756272        1.7699212709
  C         2.6549117114        0.8843281139        2.6549095789
  C         1.7699191710        1.7699177370       -0.0007767271
