       8
 i =        1, E =       -45.1137915750
  C         0.8860919157        2.6980027254        2.6980029609
  C        -0.0112813529       -0.0112865890       -0.0112811168
  C         0.8932295651        0.8932361019        0.8932339336
  C        -0.0169008908        1.7927542502        1.7927507652
  C         2.6979982615        2.6980022794        0.8860874519
  C         1.7927481676       -0.0168965798        1.7927478983
  C         2.6980062664        0.8860852960        2.6980019155
  C         1.7927508194        1.7927453090       -0.0169010549
       8
 i =        2, E =       -45.1138808887
  C         0.8893330112        2.7015794223        2.7015794946
  C        -0.0118634183       -0.0118653789       -0.0118631324
  C         0.8936239695        0.8936269930        0.8936260726
  C        -0.0152795761        1.7963744148        1.7963729318
  C         2.7015770630        2.7015787270        0.8893306278
  C         1.7963715663       -0.0152775081        1.7963713958
  C         2.7015811541        0.8893298771        2.7015786867
  C         1.7963725981        1.7963697562       -0.0152800461
       8
 i =        3, E =       -45.1139563846
  C         0.8959183654        2.7067986739        2.7067984346
  C        -0.0098907001       -0.0098894130       -0.0098904394
  C         0.8958490882        0.8958479538        0.8958484975
  C        -0.0099531107        1.8018523675        1.8018529076
  C         2.7067988586        2.7067979261        0.8959187349
  C         1.8018533692       -0.0099539795        1.8018530820
  C         2.7067980310        0.8959194753        2.7067981924
  C         1.8018524800        1.8018531583       -0.0099536799
       8
 i =        4, E =       -45.1140003899
  C         0.9101208110        2.7179830200        2.7179824853
  C        -0.0024425765       -0.0024372841       -0.0024426004
  C         0.9029509180        0.9029441163        0.9029464795
  C         0.0030362023        1.8133075477        1.8133107167
  C         2.7179870770        2.7179829407        0.9101251183
  C         1.8133136837        0.0030314950        1.8133135391
  C         2.7179792828        0.9101275933        2.7179833568
  C         1.8133105885        1.8133162350        0.0030359558
       8
 i =        5, E =       -45.1140467610
  C         0.9045280813        2.7138199432        2.7138196564
  C        -0.0031486923       -0.0031466074       -0.0031486304
  C         0.9019466442        0.9019439512        0.9019448452
  C        -0.0014029618        1.8089692536        1.8089704300
  C         2.7138214411        2.7138198345        0.9045297370
  C         1.8089716341       -0.0014048203        1.8089715746
  C         2.7138184795        0.9045307361        2.7138199915
  C         1.8089703622        1.8089726033       -0.0014031601
       8
 i =        6, E =       -45.1140577643
  C         0.9048797050        2.7146258306        2.7146257370
  C        -0.0007711512       -0.0007705998       -0.0007711221
  C         0.9040775028        0.9040767694        0.9040769499
  C        -0.0004508152        1.8096585116        1.8096587347
  C         2.7146262262        2.7146258447        0.9048801152
  C         1.8096591101       -0.0004513284        1.8096591076
  C         2.7146254504        0.9048803590        2.7146258135
  C         1.8096587965        1.8096593808       -0.0004509249
       8
 i =        7, E =       -45.1140586469
  C         0.9050497597        2.7150617806        2.7150617687
  C         0.0001954664        0.0001954054        0.0001954550
  C         0.9050825101        0.9050826037        0.9050825349
  C        -0.0000235787        1.8100536722        1.8100535916
  C         2.7150617452        2.7150617941        0.9050496911
  C         1.8100536046       -0.0000235368        1.8100535896
  C         2.7150618260        0.9050496665        2.7150617617
  C         1.8100536300        1.8100535605       -0.0000236217
       8
 i =        8, E =       -45.1140586466
  C         0.9050497597        2.7150617806        2.7150617687
  C         0.0001954664        0.0001954054        0.0001954550
  C         0.9050825101        0.9050826037        0.9050825349
  C        -0.0000235787        1.8100536722        1.8100535916
  C         2.7150617452        2.7150617941        0.9050496911
  C         1.8100536046       -0.0000235368        1.8100535896
  C         2.7150618260        0.9050496665        2.7150617617
  C         1.8100536300        1.8100535605       -0.0000236217
