       6
 i =        1, E =       -34.3708960019
  H         5.6861474502        7.4607532994        8.0738083814
  H         7.0606101194        7.4984142521        7.3507154568
  O         6.0938171272        7.5006885037        7.1958853467
  H         9.3204492136        8.2682635822        6.9760401777
  H         9.3025586148        6.7324852063        6.9279105369
  O         8.9827147812        7.4887694269        7.4469262453
       6
 i =        2, E =       -34.3712056919
  H         5.6921305610        7.4606772843        8.0781165990
  H         7.0795694449        7.4981130348        7.3614961008
  O         6.1059856813        7.5001274707        7.1980735617
  H         9.3179525977        8.2789741430        6.9792850292
  H         9.2999159018        6.7227601949        6.9309969211
  O         8.9585025026        7.4902657034        7.4323369507
       6
 i =        3, E =       -34.3714022843
  H         5.7007197110        7.4606341146        8.0818357002
  H         7.0939394873        7.4978512502        7.3700875100
  O         6.1177747059        7.5000565532        7.2028011615
  H         9.3135304263        8.2781362809        6.9795544336
  H         9.2956978346        6.7246728709        6.9316977721
  O         8.9338968164        7.4914134211        7.4220350609
       6
 i =        4, E =       -34.3616727433
  H         5.7854609090        7.4602584648        8.1172946491
  H         7.2215623448        7.4957344179        7.4441558831
  O         6.2250370644        7.4993425131        7.2459887390
  H         9.2583883793        8.2766188690        6.9863843932
  H         9.2421557423        6.7376095607        6.9428463607
  O         8.6838968164        7.5038355526        7.3118987782
       6
 i =        5, E =       -34.3716478867
  H         5.7139651262        7.4605463598        8.0880239443
  H         7.1094710972        7.4976383459        7.3794572366
  O         6.1317003419        7.5000824899        7.2107999221
  H         9.3001649899        8.2769699135        6.9780459401
  H         9.2826149804        6.7278422876        6.9307747536
  O         8.9126795052        7.4928242087        7.4105143765
       6
 i =        6, E =       -34.3717104915
  H         5.7221609806        7.4605310899        8.0913568762
  H         7.1177857697        7.4976726902        7.3829098836
  O         6.1403542745        7.4999901063        7.2147554082
  H         9.2923313913        8.2784364001        6.9768507665
  H         9.2744645358        6.7289597289        6.9307039875
  O         8.9016148108        7.4948501724        7.4052380160
       6
 i =        7, E =       -34.3717688642
  H         5.7327540517        7.4606095611        8.0937363948
  H         7.1258701341        7.4981392525        7.3832896547
  O         6.1509846784        7.4997746394        7.2177569598
  H         9.2837104744        8.2809836037        6.9758804548
  H         9.2650308136        6.7306354321        6.9317357887
  O         8.8978392220        7.4978311734        7.4066746943
       6
 i =        8, E =       -34.3718363707
  H         5.7637791115        7.4609733239        8.0980702434
  H         7.1491563393        7.5003656660        7.3839631552
  O         6.1797039630        7.4990363767        7.2219597308
  H         9.2606562465        8.2890422907        6.9727171619
  H         9.2406596057        6.7322405042        6.9324889190
  O         8.8936571357        7.5036004700        7.4117714084
       6
 i =        9, E =       -34.3718732693
  H         5.7603700532        7.4610451544        8.0960422932
  H         7.1446982370        7.5008436283        7.3813876102
  O         6.1733982010        7.4995154573        7.2182989212
  H         9.2639324663        8.2874017337        6.9717585697
  H         9.2447603704        6.7322254673        6.9307124084
  O         8.8982659569        7.5021220028        7.4140242564
       6
 i =       10, E =       -34.3719221119
  H         5.7689083878        7.4613861641        8.0951084417
  H         7.1524635367        7.5032579539        7.3757414680
  O         6.1785293674        7.4999439764        7.2153535625
  H         9.2571511863        8.2881404740        6.9662268663
  H         9.2396872333        6.7326238554        6.9250412490
  O         8.9033172721        7.5016156239        7.4179526551
       6
 i =       11, E =       -34.3719530997
  H         5.7843943252        7.4618911942        8.0955944557
  H         7.1657095244        7.5061657273        7.3713055135
  O         6.1886322362        7.5004343265        7.2131072686
  H         9.2456719442        8.2891067016        6.9559502143
  H         9.2308749219        6.7335856936        6.9144245610
  O         8.9061273929        7.5013120938        7.4186686210
       6
 i =       12, E =       -34.3719672580
  H         5.7838055601        7.4619514184        8.0971383829
  H         7.1658987609        7.5060310515        7.3708218986
  O         6.1874961143        7.5003043412        7.2144645848
  H         9.2460130149        8.2880975628        6.9516100455
  H         9.2322238938        6.7336120295        6.9090732123
  O         8.9067717760        7.5003971304        7.4149215382
       6
 i =       13, E =       -34.3719813103
  H         5.7877835991        7.4622233116        8.1021440189
  H         7.1665730478        7.5047024935        7.3724907713
  O         6.1875180111        7.5003105221        7.2178753438
  H         9.2448413104        8.2862886242        6.9386199695
  H         9.2330741965        6.7343015312        6.8939376264
  O         8.9076642964        7.4989472561        7.4040978443
       6
 i =       14, E =       -34.3719868636
  H         5.7883643164        7.4622531575        8.1018401186
  H         7.1663930867        7.5044469120        7.3717742383
  O         6.1883609717        7.5001415650        7.2176116060
  H         9.2436107641        8.2864586318        6.9399151737
  H         9.2312631518        6.7351499171        6.8959484868
  O         8.9080931868        7.4996508897        7.4076127564
       6
 i =       15, E =       -34.3719888475
  H         5.7886968902        7.4623326071        8.1025286466
  H         7.1656024788        7.5036368210        7.3720165023
  O         6.1881240870        7.5000995804        7.2178821867
  H         9.2424403102        8.2868304932        6.9391090912
  H         9.2298464277        6.7353828196        6.8953258933
  O         8.9081506465        7.4999830323        7.4076860958
       6
 i =       16, E =       -34.3719888475
  H         5.7886968902        7.4623326071        8.1025286466
  H         7.1656024788        7.5036368210        7.3720165023
  O         6.1881240870        7.5000995804        7.2178821867
  H         9.2424403102        8.2868304932        6.9391090912
  H         9.2298464277        6.7353828196        6.8953258933
  O         8.9081506465        7.4999830323        7.4076860958
