       8
 i =        1, E =       -44.9179411398
  C         0.7485662103        2.7877536277        2.7877840742
  C        -0.0278946707       -0.0279624472       -0.0279377219
  C         0.9084376785        0.9084763592        0.9084721980
  C        -0.1189748852        1.8028458234        1.8028204868
  C         2.7877957657        2.7878395454        0.7485174815
  C         1.8028197038       -0.1189346632        1.8028279325
  C         2.7877910426        0.7485477060        2.7878066927
  C         1.8028404941        1.8028146534       -0.1189095732
       8
 i =        2, E =       -44.9384613383
  C         0.8495316489        2.8156549861        2.8156669508
  C        -0.1554744855       -0.1554742587       -0.1554889497
  C         0.8337839814        0.8337871340        0.8337841445
  C        -0.0997579097        1.8197727928        1.8197677309
  C         2.8156694700        2.8156744306        0.8495303558
  C         1.8197763927       -0.0997512498        1.8197670963
  C         2.8156738594        0.8495276697        2.8156761480
  C         1.8197790229        1.8197666130       -0.0997497385
       8
 i =        3, E =       -44.9448466024
  C         0.8726519624        2.7871593288        2.7871558054
  C        -0.1194392990       -0.1194438270       -0.1194330173
  C         0.8600335252        0.8600314957        0.8600282513
  C        -0.0996370345        1.8237654646        1.8237650716
  C         2.7871600178        2.7871574051        0.8726512169
  C         1.8237689310       -0.0996426226        1.8237608290
  C         2.7871615890        0.8726554558        2.7871566730
  C         1.8237652291        1.8237639438       -0.0996426570
       8
 i =        4, E =       -44.9461676362
  C         0.8648345915        2.8000223317        2.8000224907
  C        -0.1011381390       -0.1011335889       -0.1011414607
  C         0.8726122470        0.8726078834        0.8726067201
  C        -0.0969029719        1.8338877143        1.8338902509
  C         2.8000240372        2.8000200154        0.8648371528
  C         1.8338894810       -0.0969082786        1.8338876511
  C         2.8000247444        0.8648330800        2.8000223859
  C         1.8338894459        1.8338888770       -0.0969099955
       8
 i =        5, E =       -44.9468909400
  C         0.8770471371        2.8207894512        2.8207874222
  C        -0.0804634905       -0.0804715509       -0.0804638843
  C         0.8884949816        0.8884944491        0.8884963786
  C        -0.0843221558        1.8535478566        1.8535448309
  C         2.8207890011        2.8207924010        0.8770413264
  C         1.8535455811       -0.0843219193        1.8535461780
  C         2.8207898348        0.8770459635        2.8207888179
  C         1.8535445323        1.8535438362       -0.0843206738
       8
 i =        6, E =       -44.9470051229
  C         0.8843296757        2.8217730336        2.8217760643
  C        -0.0820048723       -0.0819969341       -0.0820091358
  C         0.8870701707        0.8870686882        0.8870677352
  C        -0.0810634308        1.8545859762        1.8545893896
  C         2.8217758838        2.8217724972        0.8843339687
  C         1.8545866530       -0.0810645626        1.8545874727
  C         2.8217734456        0.8843276591        2.8217748403
  C         1.8545900945        1.8545886347       -0.0810653067
       8
 i =        7, E =       -44.9470167990
  C         0.8869360549        2.8218343950        2.8218296415
  C        -0.0808160055       -0.0808279195       -0.0808112055
  C         0.8875186159        0.8875189047        0.8875210887
  C        -0.0801277159        1.8546783860        1.8546727337
  C         2.8218305104        2.8218350190        0.8869301345
  C         1.8546773634       -0.0801259631        1.8546758349
  C         2.8218347411        0.8869382400        2.8218327144
  C         1.8546720019        1.8546736259       -0.0801261169
       8
 i =        8, E =       -44.9470175485
  C         0.8869467820        2.8219132527        2.8219182999
  C        -0.0808222418       -0.0808110771       -0.0808269991
  C         0.8872251913        0.8872247851        0.8872226247
  C        -0.0802329820        1.8544983320        1.8545042098
  C         2.8219180928        2.8219133892        0.8869520286
  C         1.8544989886       -0.0802349319        1.8545004755
  C         2.8219126710        0.8869448188        2.8219147650
  C         1.8545050027        1.8545025606       -0.0802342078
       8
 i =        9, E =       -44.9470175481
  C         0.8869467820        2.8219132527        2.8219182999
  C        -0.0808222418       -0.0808110771       -0.0808269991
  C         0.8872251913        0.8872247851        0.8872226247
  C        -0.0802329820        1.8544983320        1.8545042098
  C         2.8219180928        2.8219133892        0.8869520286
  C         1.8544989886       -0.0802349319        1.8545004755
  C         2.8219126710        0.8869448188        2.8219147650
  C         1.8545050027        1.8545025606       -0.0802342078
