       8
 i =        1, E =       -45.1143394515
  C         0.8830242955        2.7012205138        2.7012192666
  C        -0.0134889322       -0.0135037190       -0.0134916671
  C         0.8931785257        0.8931927502        0.8931853778
  C        -0.0214060262        1.7932854877        1.7932822707
  C         2.7012139300        2.7012236714        0.8830173906
  C         1.7932766903       -0.0213914106        1.7932773528
  C         2.7012296107        0.8830101994        2.7012245844
  C         1.7932829298        1.7932735632       -0.0214035735
       8
 i =        2, E =       -45.1144569166
  C         0.8868309933        2.7048054919        2.7048048316
  C        -0.0154868979       -0.0154931976       -0.0154878650
  C         0.8926884672        0.8926945162        0.8926915440
  C        -0.0200707612        1.7970438362        1.7970420552
  C         2.7048021465        2.7048064771        0.8868276310
  C         1.7970398630       -0.0200640114        1.7970400666
  C         2.7048099928        0.8868249266        2.7048072078
  C         1.7970420865        1.7970379577       -0.0200699549
       8
 i =        3, E =       -45.1145222111
  C         0.8926340750        2.7087071719        2.7087069255
  C        -0.0146537791       -0.0146530379       -0.0146533853
  C         0.8936895314        0.8936886589        0.8936893487
  C        -0.0155739911        1.8012992017        1.8012988814
  C         2.7087067617        2.7087064100        0.8926340346
  C         1.8012996038       -0.0155744962        1.8012992394
  C         2.7087070885        0.8926350206        2.7087067102
  C         1.8012985746        1.8012990117       -0.0155745164
       8
 i =        4, E =       -45.1145617872
  C         0.9166960404        2.7258493370        2.7258505299
  C        -0.0060752820       -0.0060540010       -0.0060713311
  C         0.9017376426        0.9017166368        0.9017276372
  C         0.0053873996        1.8192179644        1.8192222732
  C         2.7258581952        2.7258442608        0.9167059819
  C         1.8192310175        0.0053656918        1.8192295047
  C         2.7258356538        0.9167170278        2.7258428279
  C         1.8192213238        1.8192351451        0.0053833965
       8
 i =        5, E =       -45.1146651651
  C         0.9046880876        2.7179818288        2.7179819673
  C        -0.0075586296       -0.0075512289       -0.0075571030
  C         0.9000690016        0.9000615139        0.9000655070
  C        -0.0043722455        1.8108308824        1.8108319868
  C         2.7179844973        2.7179799148        0.9046914301
  C         1.8108352877       -0.0043797826        1.8108348157
  C         2.7179771018        0.9046955852        2.7179793701
  C         1.8108316101        1.8108365866       -0.0043737938
       8
 i =        6, E =       -45.1147005238
  C         0.9067561102        2.7205876675        2.7205877129
  C        -0.0037068235       -0.0037021527       -0.0037058802
  C         0.9036331925        0.9036285365        0.9036309576
  C        -0.0018045624        1.8132800958        1.8132806067
  C         2.7205892828        2.7205866015        0.9067581410
  C         1.8132826719       -0.0018092639        1.8132825027
  C         2.7205846617        0.9067606810        2.7205860569
  C         1.8132805110        1.8132835928       -0.0018055335
       8
 i =        7, E =       -45.1147125673
  C         0.9082936379        2.7235297155        2.7235295755
  C         0.0015369936        0.0015361880        0.0015368228
  C         0.9087606946        0.9087617390        0.9087611389
  C         0.0006782531        1.8159941868        1.8159937857
  C         2.7235292605        2.7235299207        0.9082931201
  C         1.8159934879        0.0006791681        1.8159935384
  C         2.7235302000        0.9082926872        2.7235298687
  C         1.8159939285        1.8159933238        0.0006783311
       8
 i =        8, E =       -45.1147145370
  C         0.9074334280        2.7224193206        2.7224192519
  C         0.0000306134        0.0000305974        0.0000305883
  C         0.9073846810        0.9073848455        0.9073847140
  C        -0.0001982294        1.8149152426        1.8149151038
  C         2.7224192333        2.7224193376        0.9074333277
  C         1.8149151171       -0.0001981198        1.8149151141
  C         2.7224193370        0.9074333297        2.7224192708
  C         1.8149151662        1.8149151013       -0.0001982726
       8
 i =        9, E =       -45.1147145879
  C         0.9075023489        2.7224955141        2.7224954630
  C         0.0000591600        0.0000591339        0.0000591386
  C         0.9074815799        0.9074816822        0.9074815960
  C        -0.0000689826        1.8149926751        1.8149926023
  C         2.7224954676        2.7224955257        0.9075022966
  C         1.8149926091       -0.0000689090        1.8149926027
  C         2.7224955253        0.9075023010        2.7224954911
  C         1.8149926320        1.8149926112       -0.0000690018
       8
 i =       10, E =       -45.1147145879
  C         0.9075023489        2.7224955141        2.7224954630
  C         0.0000591600        0.0000591339        0.0000591386
  C         0.9074815799        0.9074816822        0.9074815960
  C        -0.0000689826        1.8149926751        1.8149926023
  C         2.7224954676        2.7224955257        0.9075022966
  C         1.8149926091       -0.0000689090        1.8149926027
  C         2.7224955253        0.9075023010        2.7224954911
  C         1.8149926320        1.8149926112       -0.0000690018
