       8
 i =        1, E =       -44.9768471485
  C         0.8678684619        2.7104177138        2.7104209790
  C        -0.0197960829       -0.0197940276       -0.0197868609
  C         0.8932935216        0.8932974133        0.8932920017
  C        -0.0387399788        1.7933245185        1.7933190308
  C         2.7104086856        2.7104085333        0.8678691282
  C         1.7933138140       -0.0387465048        1.7933165217
  C         2.7104178417        0.8678656608        2.7104065479
  C         1.7933206002        1.7933136651       -0.0387504145
       8
 i =        2, E =       -44.9771750048
  C         0.8746497643        2.7088793551        2.7088797099
  C        -0.0316706339       -0.0316689788       -0.0316694528
  C         0.8852501459        0.8852512307        0.8852512986
  C        -0.0394636971        1.7935665373        1.7935660595
  C         2.7088768012        2.7088751619        0.8746469387
  C         1.7935639400       -0.0394659916        1.7935629705
  C         2.7088778020        0.8746474554        2.7088750699
  C         1.7935638264        1.7935621750       -0.0394662723
       8
 i =        3, E =       -44.9773167632
  C         0.8752933688        2.7052576477        2.7052565591
  C        -0.0403891564       -0.0403889992       -0.0403900377
  C         0.8763245078        0.8763243791        0.8763255082
  C        -0.0409096330        1.7906729615        1.7906736946
  C         2.7052574044        2.7052564089        0.8752915859
  C         1.7906740765       -0.0409096398        1.7906722138
  C         2.7052564657        0.8752926189        2.7052571043
  C         1.7906721201        1.7906726144       -0.0409092649
       8
 i =        4, E =       -44.9471436051
  C         0.8722293312        2.5927336933        2.5926999756
  C        -0.2830915704       -0.2831286680       -0.2831468075
  C         0.6263564186        0.6263243791        0.6263515575
  C        -0.0959295262        1.6954613414        1.6954918754
  C         2.5927959710        2.5928127758        0.8722552925
  C         1.6955541533       -0.0958712241        1.6955350855
  C         2.5927457290        0.8722688430        2.5928307544
  C         1.6955096536        1.6955638013       -0.0958537549
       8
 i =        5, E =       -44.9776508855
  C         0.8719300495        2.6955628340        2.6955592934
  C        -0.0580728085       -0.0580708211       -0.0580726184
  C         0.8581189537        0.8581217402        0.8581252489
  C        -0.0489646821        1.7824488092        1.7824508078
  C         2.6955633501        2.6955596179        0.8719243829
  C         1.7824513716       -0.0489631761        1.7824437720
  C         2.6955592678        0.8719267253        2.6955612860
  C         1.7824460094        1.7824460313       -0.0489613977
       8
 i =        6, E =       -44.9778290078
  C         0.8690410113        2.6893771492        2.6893722919
  C        -0.0670100252       -0.0670110285       -0.0670130538
  C         0.8483876217        0.8483880205        0.8483918985
  C        -0.0537104342        1.7769482136        1.7769515008
  C         2.6893797534        2.6893779585        0.8690381182
  C         1.7769548766       -0.0537070387        1.7769479755
  C         2.6893741277        0.8690404751        2.6893803660
  C         1.7769483742        1.7769514683       -0.0537051602
       8
 i =        7, E =       -44.9781776898
  C         0.8557079037        2.6711440194        2.6711367003
  C        -0.0855116643       -0.0855260100       -0.0855271644
  C         0.8260798666        0.8260663002        0.8260690119
  C        -0.0689566555        1.7598064241        1.7598126353
  C         2.6711559188        2.6711655939        0.8557219998
  C         1.7598293236       -0.0689452936        1.7598323010
  C         2.6711484732        0.8557231455        2.6711697372
  C         1.7598222167        1.7598383172       -0.0689448092
       8
 i =        8, E =       -44.9785096514
  C         0.8513714276        2.6716336009        2.6716291229
  C        -0.0795442541       -0.0795545220       -0.0795547014
  C         0.8313718613        0.8313606164        0.8313614462
  C        -0.0696253349        1.7588825243        1.7588867473
  C         2.6716418691        2.6716494111        0.8513833345
  C         1.7588985768       -0.0696185955        1.7589023417
  C         2.6716375783        0.8513832247        2.6716519689
  C         1.7588952586        1.7589062384       -0.0696190953
       8
 i =        9, E =       -44.9787618699
  C         0.8383983959        2.6686987548        2.6686989575
  C        -0.0748592013       -0.0748580036       -0.0748577418
  C         0.8376566104        0.8376570121        0.8376567930
  C        -0.0772720388        1.7533433622        1.7533434672
  C         2.6686990530        2.6686978322        0.8383969498
  C         1.7533429434       -0.0772731933        1.7533410763
  C         2.6686990401        0.8383968503        2.6686977829
  C         1.7533435573        1.7533410769       -0.0772734113
       8
 i =       10, E =       -44.9787700759
  C         0.8391839822        2.6692066146        2.6692068489
  C        -0.0750824422       -0.0750825504       -0.0750823573
  C         0.8389856179        0.8389855793        0.8389855791
  C        -0.0763714337        1.7540292688        1.7540290047
  C         2.6692068014        2.6692064208        0.8391833378
  C         1.7540286652       -0.0763722631        1.7540283383
  C         2.6692070700        0.8391833564        2.6692063132
  C         1.7540289702        1.7540281501       -0.0763723454
       8
 i =       11, E =       -44.9787720968
  C         0.8387900456        2.6687256096        2.6687256271
  C        -0.0761603796       -0.0761604574       -0.0761604784
  C         0.8388053040        0.8388050289        0.8388050782
  C        -0.0764427652        1.7537287788        1.7537287729
  C         2.6687257241        2.6687255944        0.8387900694
  C         1.7537287978       -0.0764430251        1.7537288297
  C         2.6687257372        0.8387900808        2.6687255982
  C         1.7537287946        1.7537288056       -0.0764430095
       8
 i =       12, E =       -44.9787720963
  C         0.8387900456        2.6687256096        2.6687256271
  C        -0.0761603796       -0.0761604574       -0.0761604784
  C         0.8388053040        0.8388050289        0.8388050782
  C        -0.0764427652        1.7537287788        1.7537287729
  C         2.6687257241        2.6687255944        0.8387900694
  C         1.7537287978       -0.0764430251        1.7537288297
  C         2.6687257372        0.8387900808        2.6687255982
  C         1.7537287946        1.7537288056       -0.0764430095
