       8
 i =        1, E =       -44.9777044957
  C         0.8634276822        2.7143759295        2.7143754874
  C        -0.0212403803       -0.0212478759       -0.0212405173
  C         0.8935324743        0.8935436062        0.8935374585
  C        -0.0433223421        1.7937566576        1.7937561140
  C         2.7143712948        2.7143743870        0.8634218744
  C         1.7937478797       -0.0433174107        1.7937460397
  C         2.7143770607        0.8634149828        2.7143736282
  C         1.7937542944        1.7937476135       -0.0433221758
       8
 i =        2, E =       -44.9782772913
  C         0.8719738068        2.7110588783        2.7110592398
  C        -0.0373373369       -0.0373359471       -0.0373366296
  C         0.8825651665        0.8825653267        0.8825655405
  C        -0.0447210505        1.7930393706        1.7930393451
  C         2.7110580157        2.7110572051        0.8719729441
  C         1.7930381715       -0.0447222016        1.7930377095
  C         2.7110581393        0.8719734063        2.7110569734
  C         1.7930382431        1.7930377478       -0.0447220826
       8
 i =        3, E =       -44.9786584425
  C         0.8715563266        2.7036727188        2.7036726738
  C        -0.0529022491       -0.0528994418       -0.0529018566
  C         0.8674886954        0.8674851568        0.8674874113
  C        -0.0491174971        1.7870967615        1.7870967979
  C         2.7036733489        2.7036721596        0.8715576262
  C         1.7870990998       -0.0491195667        1.7870992015
  C         2.7036718235        0.8715604019        2.7036724016
  C         1.7870966942        1.7870987956       -0.0491181102
       8
 i =        4, E =       -44.9725146736
  C         0.8449596871        2.6310229159        2.6310209145
  C        -0.1779401149       -0.1779286572       -0.1779423970
  C         0.7426987366        0.7426719196        0.7426856274
  C        -0.1011122109        1.7232087074        1.7232092044
  C         2.6310344304        2.6310316408        0.8449761140
  C         1.7232329019       -0.1011186572        1.7232386043
  C         2.6310226215        0.8449915972        2.6310343625
  C         1.7232167848        1.7232353917       -0.1011094588
       8
 i =        5, E =       -44.9792628664
  C         0.8601115545        2.6845865855        2.6845860003
  C        -0.0799257116       -0.0799214251       -0.0799250758
  C         0.8394328132        0.8394269968        0.8394307280
  C        -0.0648076428        1.7695406464        1.7695403016
  C         2.6845884394        2.6845867442        0.8601137461
  C         1.7695449988       -0.0648100771        1.7695454612
  C         2.6845853399        0.8601181143        2.6845871285
  C         1.7695407471        1.7695449674       -0.0648076182
       8
 i =        6, E =       -44.9794729334
  C         0.8558383464        2.6869785201        2.6869781007
  C        -0.0694426130       -0.0694407913       -0.0694428204
  C         0.8489095285        0.8489060619        0.8489082126
  C        -0.0661292833        1.7711683806        1.7711682603
  C         2.6869793704        2.6869789196        0.8558402691
  C         1.7711714884       -0.0661306445        1.7711718787
  C         2.6869777704        0.8558431147        2.6869792764
  C         1.7711689560        1.7711714015       -0.0661294024
       8
 i =        7, E =       -44.9797093412
  C         0.8447174868        2.6790507227        2.6790505050
  C        -0.0730444517       -0.0730437089       -0.0730445404
  C         0.8440156676        0.8440146408        0.8440153046
  C        -0.0756077586        1.7625300037        1.7625300668
  C         2.6790509105        2.6790507473        0.8447183660
  C         1.7625312350       -0.0756082613        1.7625314150
  C         2.6790501827        0.8447194916        2.6790509202
  C         1.7625304446        1.7625312122       -0.0756079796
       8
 i =        8, E =       -44.9797415801
  C         0.8410296258        2.6758249993        2.6758248540
  C        -0.0759511740       -0.0759512540       -0.0759510182
  C         0.8406998147        0.8407002391        0.8407001080
  C        -0.0773657509        1.7583618492        1.7583617443
  C         2.6758247135        2.6758247807        0.8410293869
  C         1.7583615139       -0.0773655502        1.7583615506
  C         2.6758249173        0.8410293101        2.6758248059
  C         1.7583616600        1.7583615209       -0.0773658961
       8
 i =        9, E =       -44.9797432964
  C         0.8411018833        2.6760135186        2.6760134928
  C        -0.0761902839       -0.0761902404       -0.0761902266
  C         0.8408094388        0.8408095046        0.8408094425
  C        -0.0767402555        1.7584452592        1.7584452667
  C         2.6760134804        2.6760134895        0.8411019095
  C         1.7584451965       -0.0767402222        1.7584452853
  C         2.6760134565        0.8411018906        2.6760134800
  C         1.7584452915        1.7584453222       -0.0767403211
       8
 i =       10, E =       -44.9797432961
  C         0.8411018833        2.6760135186        2.6760134928
  C        -0.0761902839       -0.0761902404       -0.0761902266
  C         0.8408094388        0.8408095046        0.8408094425
  C        -0.0767402555        1.7584452592        1.7584452667
  C         2.6760134804        2.6760134895        0.8411019095
  C         1.7584451965       -0.0767402222        1.7584452853
  C         2.6760134565        0.8411018906        2.6760134800
  C         1.7584452915        1.7584453222       -0.0767403211
