       6
 i =        0, time =        0.000, E =       -34.4478920416
  H         5.6821684572        7.4609162981        8.0689954170
  H         7.0445292989        7.4987157681        7.3404634529
  O         6.0870348932        7.5014263346        7.1990799757
  H         9.3178315428        8.2718318127        6.9796365913
  H         9.2997220345        6.7281681873        6.9310045830
  O         9.0174607918        7.4879489376        7.4460378111
       6
 i =        1, time =        0.500, E =       -34.4479748922
  H         5.6937869083        7.4559080485        8.0702130291
  H         7.0479673229        7.4976025751        7.3377896728
  O         6.0845578543        7.5017468712        7.1990519281
  H         9.3314376492        8.2632011555        6.9814300506
  H         9.3124276345        6.7242288088        6.9304053567
  O         9.0173323259        7.4888049005        7.4460946087
       6
 i =        2, time =        1.000, E =       -34.4478980912
  H         5.7048820777        7.4508690522        8.0728754023
  H         7.0519244316        7.4964937145        7.3355296950
  O         6.0821155044        7.5020658456        7.1989453324
  H         9.3456237187        8.2559162286        6.9821866830
  H         9.3252305955        6.7203000416        6.9295300195
  O         9.0171311631        7.4895759565        7.4462183517
       6
 i =        3, time =        1.500, E =       -34.4477629031
  H         5.7148532491        7.4459476307        8.0771153569
  H         7.0556511288        7.4954451813        7.3335176705
  O         6.0798426864        7.5023801706        7.1986994663
  H         9.3599816174        8.2504972324        6.9818671315
  H         9.3373639372        6.7171395874        6.9289943436
  O         9.0168756378        7.4901766217        7.4463883816
       6
 i =        4, time =        2.000, E =       -34.4476487154
  H         5.7240332895        7.4409335068        8.0831842354
  H         7.0587490504        7.4944289417        7.3315223070
  O         6.0776922917        7.5026944790        7.1983711691
  H         9.3750093334        8.2467468747        6.9805489907
  H         9.3489863662        6.7151254507        6.9292187009
  O         9.0165860658        7.4906002296        7.4465592309
       6
 i =        5, time =        2.500, E =       -34.4475807341
  H         5.7322145074        7.4359600280        8.0906294782
  H         7.0606978369        7.4934916478        7.3294029552
  O         6.0757370304        7.5030083141        7.1979395990
  H         9.3901822693        8.2445270308        6.9785473419
  H         9.3595650285        6.7146392780        6.9305625907
  O         9.0162860142        7.4908273470        7.4467059660
       6
 i =        6, time =        3.000, E =       -34.4475207201
  H         5.7400546384        7.4307340118        8.0995178125
  H         7.0613073140        7.4925877902        7.3269218978
  O         6.0738720773        7.5033298403        7.1974660090
  H         9.4061836088        8.2433062214        6.9760712950
  H         9.3695706060        6.7158272260        6.9333237599
  O         9.0159969083        7.4908881198        7.4467848188
       6
 i =        7, time =        3.500, E =       -34.4474179613
  H         5.7473614815        7.4255308083        8.1087791549
  H         7.0603583563        7.4917797687        7.3240481786
  O         6.0721712184        7.5036510611        7.1969685659
  H         9.4219753050        8.2426300316        6.9736915437
  H         9.3784444394        6.7186351888        6.9375198487
  O         9.0157490436        7.4908093076        7.4467730215
       6
 i =        8, time =        4.000, E =       -34.4472609114
  H         5.7541023781        7.4205853601        8.1174251333
  H         7.0579315909        7.4911036603        7.3208419092
  O         6.0706853857        7.5039466129        7.1965589020
  H         9.4366187013        8.2419842523        6.9719070912
  H         9.3858801565        6.7227150503        6.9429189582
  O         9.0155887060        7.4906457504        7.4466325356
       6
 i =        9, time =        4.500, E =       -34.4470405840
  H         5.7609847398        7.4155579598        8.1254750877
  H         7.0539812921        7.4905199717        7.3169788258
  O         6.0692609808        7.5042397844        7.1962352172
  H         9.4509326386        8.2408524576        6.9709624505
  H         9.3925444944        6.7280152706        6.9497999515
  O         9.0155123094        7.4904414779        7.4463239912
       6
 i =       10, time =        5.000, E =       -34.4468029603
  H         5.7675200521        7.4109416788        8.1316279148
  H         7.0491720991        7.4900878323        7.3127651640
  O         6.0680060352        7.5045073875        7.1960318543
  H         9.4633871412        8.2389707246        6.9713278763
  H         9.3980302309        6.7335269516        6.9573665896
  O         9.0155438573        7.4902575428        7.4459187572
       6
 i =       11, time =        5.500, E =       -34.4465678434
  H         5.7743494349        7.4063801993        8.1360662598
  H         7.0435085621        7.4897756584        7.3078356052
  O         6.0667659136        7.5047629063        7.1959897165
  H         9.4748133496        8.2359881767        6.9731818210
  H         9.4030223174        6.7390990802        6.9658995308
  O         9.0156813284        7.4901439865        7.4453410166
       6
 i =       12, time =        6.000, E =       -34.4463677761
  H         5.7814600746        7.4019226803        8.1384971297
  H         7.0375221934        7.4895896808        7.3021962680
  O         6.0655214793        7.5049992182        7.1961347377
  H         9.4849941657        8.2318303267        6.9766884769
  H         9.4077629394        6.7439939488        6.9750382716
  O         9.0159298804        7.4901479365        7.4446110509
       6
 i =       13, time =        6.500, E =       -34.4462532225
  H         5.7884597734        7.3977786873        8.1387318138
  H         7.0320386629        7.4895453831        7.2960790089
  O         6.0642970057        7.5052158465        7.1964226333
  H         9.4934551048        8.2267750366        6.9817636840
  H         9.4123307016        6.7472893992        6.9840760476
  O         9.0162613425        7.4902965757        7.4438174190
       6
 i =       14, time =        7.000, E =       -34.4462341449
  H         5.7962320510        7.3933600882        8.1369238785
  H         7.0268572425        7.4896482899        7.2885949369
  O         6.0628711495        7.5054377169        7.1969239114
  H         9.5013688492        8.2203469094        6.9890355302
  H         9.4176128177        6.7487671668        6.9939479315
  O         9.0166962593        7.4906566074        7.4428219664
       6
 i =       15, time =        7.500, E =       -34.4463127813
  H         5.8035805200        7.3892178524        8.1336458446
  H         7.0232207768        7.4898887284        7.2807179366
  O         6.0614214428        7.5056316402        7.1975585673
  H         9.5078390693        8.2138039860        6.9973765781
  H         9.4231141259        6.7476939946        7.0031381983
  O         9.0171669509        7.4911828562        7.4417836296
       6
 i =       16, time =        8.000, E =       -34.4464620040
  H         5.8107001314        7.3850573097        8.1292400805
  H         7.0212696143        7.4902893338        7.2719739257
  O         6.0598582735        7.5058234825        7.1982847336
  H         9.5135590759        8.2073116706        7.0070045894
  H         9.4292197757        6.7438195983        7.0121621810
  O         9.0176726582        7.4918716276        7.4407036969
       6
 i =       17, time =        8.500, E =       -34.4466132010
  H         5.8170650113        7.3809820478        8.1246703132
  H         7.0212295203        7.4908342514        7.2627783563
  O         6.0582560813        7.5059986374        7.1990634201
  H         9.5186424073        8.2018039710        7.0170344739
  H         9.4355655526        6.7374600046        7.0206477377
  O         9.0181711206        7.4926536990        7.4396106128
       6
 i =       18, time =        9.000, E =       -34.4467245687
  H         5.8222113427        7.3770944945        8.1209060492
  H         7.0229022889        7.4915040849        7.2536015983
  O         6.0567052081        7.5061611793        7.1998166215
  H         9.5232921989        8.1980938828        7.0265929255
  H         9.4416329758        6.7294459885        7.0284319837
  O         9.0186166633        7.4934307015        7.4385748369
       6
 i =       19, time =        9.500, E =       -34.4468008425
  H         5.8264623270        7.3729634820        8.1182154449
  H         7.0260608839        7.4923566880        7.2436529232
  O         6.0551096614        7.5063346617        7.2005163635
  H         9.5283346491        8.1962763766        7.0362179406
  H         9.4476756030        6.7197437846        7.0365170964
  O         9.0190425767        7.4941840627        7.4375376302
       6
 i =       20, time =       10.000, E =       -34.4468565556
  H         5.8297442804        7.3685294640        8.1172091261
  H         7.0301876815        7.4933928091        7.2330555257
  O         6.0535145840        7.5065162093        7.2011731318
  H         9.5340566176        8.1967001242        7.0455496164
  H         9.4533286957        6.7091743490        7.0451319673
  O         9.0194509089        7.4948539595        7.4364739322
       6
 i =       21, time =       10.500, E =       -34.4469201144
  H         5.8320550692        7.3637672241        8.1181746850
  H         7.0346305481        7.4946039973        7.2219413324
  O         6.0519644334        7.5067045530        7.2017481081
  H         9.5406064339        8.1994296727        7.0543767714
  H         9.4582312482        6.6986075359        7.0544925733
  O         9.0198417373        7.4953777325        7.4353679420
       6
 i =       22, time =       11.000, E =       -34.4469976729
  H         5.8335118435        7.3586449189        8.1210831840
  H         7.0387788813        7.4960021523        7.2103433886
  O         6.0504929692        7.5069156676        7.2022087835
  H         9.5480685556        8.2042750239        7.0628305498
  H         9.4621584209        6.6887218865        7.0649458612
  O         9.0202364744        7.4957170351        7.4342539643
       6
 i =       23, time =       11.500, E =       -34.4470632783
  H         5.8343103481        7.3533125054        8.1256075952
  H         7.0419327284        7.4975385943        7.1986778808
  O         6.0491516536        7.5071306587        7.2025924833
  H         9.5561014048        8.2106664579        7.0707686331
  H         9.4648404347        6.6803774899        7.0763209557
  O         9.0206462408        7.4958624794        7.4330929146
       6
 i =       24, time =       12.000, E =       -34.4470870728
  H         5.8347158656        7.3479134512        8.1311410562
  H         7.0435961144        7.4991778346        7.1872351135
  O         6.0479668472        7.5073429314        7.2029203757
  H         9.5643219170        8.2178662445        7.0783100799
  H         9.4662015946        6.6740788870        7.0885029111
  O         9.0210880872        7.4958285329        7.4318834533
       6
 i =       25, time =       12.500, E =       -34.4470534940
  H         5.8350040919        7.3424716612        8.1370466371
  H         7.0435013607        7.5009303670        7.1759694510
  O         6.0469217817        7.5075613637        7.2031857534
  H         9.5725209937        8.2252469642        7.0858844690
  H         9.4663318482        6.6699061821        7.1016700114
  O         9.0215854592        7.4956386428        7.4306371849
       6
 i =       26, time =       13.000, E =       -34.4469613758
  H         5.8354969078        7.3369544326        8.1428325026
  H         7.0414802625        7.5028176389        7.1647500755
  O         6.0459760790        7.5077745546        7.2034765566
  H         9.5805358586        8.2322864056        7.0938676917
  H         9.4653866063        6.6677736878        7.1159977489
  O         9.0221697166        7.4953432444        7.4292709865
       6
 i =       27, time =       13.500, E =       -34.4468542096
  H         5.8363816075        7.3320037551        8.1472767130
  H         7.0378117372        7.5046375530        7.1547654868
  O         6.0451993994        7.5079638847        7.2037667222
  H         9.5872906246        8.2376720609        7.1017279849
  H         9.4637487958        6.6676053800        7.1299281412
  O         9.0227854340        7.4950207568        7.4279449297
       6
 i =       28, time =       14.000, E =       -34.4467498842
  H         5.8379769613        7.3271329244        8.1504438896
  H         7.0323137599        7.5065749582        7.1449654110
  O         6.0444706133        7.5081386853        7.2041466420
  H         9.5933330923        8.2415552049        7.1104589172
  H         9.4615980303        6.6689360496        7.1447938912
  O         9.0234996049        7.4947006602        7.4264843630
       6
 i =       29, time =       14.500, E =       -34.4466662720
  H         5.8402795501        7.3228120779        8.1517050705
  H         7.0258270602        7.5084542466        7.1362213180
  O         6.0438176310        7.5082900976        7.2045708691
  H         9.5980374236        8.2432754327        7.1194476480
  H         9.4595395554        6.6710549030        7.1591238900
  O         9.0242328899        7.4944596465        7.4250508796
       6
 i =       30, time =       15.000, E =       -34.4466207053
  H         5.8432934471        7.3191385890        8.1510424612
  H         7.0190414321        7.5102157605        7.1287228927
  O         6.0432123484        7.5084057854        7.2050618115
  H         9.6013491945        8.2427830542        7.1284223809
  H         9.4580570924        6.6732185449        7.1723322877
  O         9.0249427529        7.4943576112        7.4236653431
       6
 i =       31, time =       15.500, E =       -34.4466034692
  H         5.8472721679        7.3157577381        8.1484935559
  H         7.0119286401        7.5120161325        7.1217546223
  O         6.0425644485        7.5085082681        7.2056287233
  H         9.6037311275        8.2401415485        7.1381634058
  H         9.4574233865        6.6749486277        7.1854419243
  O         9.0256590112        7.4944105968        7.4222476595
       6
 i =       32, time =       16.000, E =       -34.4466003483
  H         5.8519140029        7.3128268758        8.1445732583
  H         7.0055547186        7.5137288752        7.1157390902
  O         6.0418778979        7.5085846285        7.2062434563
  H         9.6052912647        8.2358250170        7.1478538248
  H         9.4580262661        6.6755737880        7.1974155459
  O         9.0262982986        7.4946419273        7.4208838183
