       8
 i =        1, E =       -44.9368312145
  C         0.7679756511        2.7767590894        2.7767703144
  C        -0.0309580809       -0.0310016903       -0.0309777587
  C         0.9044041972        0.9044312693        0.9044168104
  C        -0.1108316681        1.8012446654        1.8012268575
  C         2.7767569512        2.7767943691        0.7679651704
  C         1.8012182799       -0.1107981864        1.8012362958
  C         2.7767935477        0.7679545720        2.7767813583
  C         1.8012449626        1.8012188693       -0.1108155792
       8
 i =        2, E =       -44.9521978718
  C         0.8604344971        2.7957947416        2.7957972643
  C        -0.1404583024       -0.1404585155       -0.1404588857
  C         0.8388942650        0.8388928788        0.8388939366
  C        -0.0892174229        1.8161384861        1.8161441152
  C         2.7958000181        2.7957968211        0.8604326001
  C         1.8161439932       -0.0892168688        1.8161386364
  C         2.7958018725        0.8604310880        2.7957999012
  C         1.8161442790        1.8161382439       -0.0892169235
       8
 i =        3, E =       -44.9564310141
  C         0.8692232627        2.7766970873        2.7766986466
  C        -0.1077276579       -0.1077315801       -0.1077292282
  C         0.8628043651        0.8628010451        0.8628027908
  C        -0.0915594394        1.8194077391        1.8194094142
  C         2.7766991038        2.7766979455        0.8692233958
  C         1.8194100038       -0.0915620945        1.8194082664
  C         2.7767006093        0.8692235653        2.7766988016
  C         1.8194099219        1.8194077616       -0.0915608825
       8
 i =        4, E =       -44.9571425922
  C         0.8647869481        2.7866432658        2.7866440976
  C        -0.0911125321       -0.0911111969       -0.0911122903
  C         0.8739720389        0.8739685452        0.8739702885
  C        -0.0897224454        1.8279788749        1.8279813858
  C         2.7866456122        2.7866421988        0.8647867528
  C         1.8279812255       -0.0897258961        1.8279791748
  C         2.7866439153        0.8647863669        2.7866436482
  C         1.8279805693        1.8279801695       -0.0897239328
       8
 i =        5, E =       -44.9574587456
  C         0.8745092450        2.7979756004        2.7979757333
  C        -0.0817899519       -0.0817938558       -0.0817910926
  C         0.8802280399        0.8802280903        0.8802282383
  C        -0.0822467089        1.8385943254        1.8385924799
  C         2.7979748034        2.7979770406        0.8745083099
  C         1.8385924983       -0.0822460240        1.8385936600
  C         2.7979773285        0.8745079171        2.7979765113
  C         1.8385935512        1.8385922971       -0.0822466433
       8
 i =        6, E =       -44.9574905778
  C         0.8796122492        2.8001816233        2.8001816432
  C        -0.0803493194       -0.0803448063       -0.0803480029
  C         0.8807251036        0.8807239998        0.8807245028
  C        -0.0795241925        1.8405443779        1.8405467106
  C         2.8001828347        2.8001796912        0.8796127267
  C         1.8405461868       -0.0795258199        1.8405446417
  C         2.8001799189        0.8796129309        2.8001807344
  C         1.8405455467        1.8405458353       -0.0795248539
       8
 i =        7, E =       -44.9574923788
  C         0.8801016000        2.8001490931        2.8001488031
  C        -0.0801260084       -0.0801310418       -0.0801274548
  C         0.8804922434        0.8804930092        0.8804927053
  C        -0.0795022428        1.8402844814        1.8402820259
  C         2.8001478507        2.8001510844        0.8801011047
  C         1.8402825846       -0.0795004075        1.8402842279
  C         2.8001510027        0.8801009568        2.8001504032
  C         1.8402832309        1.8402829605       -0.0795016077
       8
 i =        8, E =       -44.9574923783
  C         0.8801016000        2.8001490931        2.8001488031
  C        -0.0801260084       -0.0801310418       -0.0801274548
  C         0.8804922434        0.8804930092        0.8804927053
  C        -0.0795022428        1.8402844814        1.8402820259
  C         2.8001478507        2.8001510844        0.8801011047
  C         1.8402825846       -0.0795004075        1.8402842279
  C         2.8001510027        0.8801009568        2.8001504032
  C         1.8402832309        1.8402829605       -0.0795016077
