       8
 i =        1, E =       -45.1145849519
  C         0.8796315029        2.7044657867        2.7044614879
  C        -0.0155048014       -0.0155149702       -0.0155058259
  C         0.8932416158        0.8932503263        0.8932479689
  C        -0.0259807210        1.7937516124        1.7937492871
  C         2.7044599858        2.7044647663        0.8796255031
  C         1.7937491679       -0.0259703318        1.7937456774
  C         2.7044708226        0.8796233948        2.7044690066
  C         1.7937468166        1.7937438190       -0.0259787400
       8
 i =        2, E =       -45.1147417646
  C         0.8841846717        2.7078501984        2.7078481707
  C        -0.0193655876       -0.0193698680       -0.0193663407
  C         0.8915517565        0.8915551351        0.8915541380
  C        -0.0249881958        1.7975092440        1.7975084043
  C         2.7078473894        2.7078496338        0.8841819281
  C         1.7975083302       -0.0249835454        1.7975071845
  C         2.7078525481        0.8841814475        2.7078516805
  C         1.7975069825        1.7975058628       -0.0249877635
       8
 i =        3, E =       -45.1147907255
  C         0.8891755640        2.7105191991        2.7105186017
  C        -0.0194222521       -0.0194228022       -0.0194223502
  C         0.8914760804        0.8914762340        0.8914762806
  C        -0.0212275801        1.8006207579        1.8006203928
  C         2.7105183577        2.7105188118        0.8891750857
  C         1.8006207868       -0.0212268700        1.8006205391
  C         2.7105196345        0.8891754942        2.7105192981
  C         1.8006200643        1.8006200908       -0.0212278646
       8
 i =        4, E =       -45.1149008045
  C         0.9130275362        2.7251501646        2.7251549876
  C        -0.0141987495       -0.0141860679       -0.0141967419
  C         0.8954870858        0.8954762004        0.8954794459
  C        -0.0008834757        1.8163799945        1.8163817258
  C         2.7251569683        2.7251509779        0.9130351114
  C         1.8163830967       -0.0008966980        1.8163863241
  C         2.7251437059        0.9130381049        2.7251455147
  C         1.8163854604        1.8163893594       -0.0008859026
       8
 i =        5, E =       -45.1149732828
  C         0.9071927222        2.7230844745        2.7230863921
  C        -0.0117702060       -0.0117634410       -0.0117689390
  C         0.8978864518        0.8978806061        0.8978823923
  C        -0.0050711420        1.8137495087        1.8137498389
  C         2.7230873174        2.7230845379        0.9071962534
  C         1.8137510237       -0.0050779225        1.8137525057
  C         2.7230808667        0.9071984397        2.7230814732
  C         1.8137517529        1.8137539940       -0.0050726847
       8
 i =        6, E =       -45.1150722229
  C         0.9091872385        2.7292533314        2.7292517718
  C        -0.0001497075       -0.0001501429       -0.0001496375
  C         0.9089722373        0.9089728572        0.9089725229
  C        -0.0011106172        1.8191305345        1.8191291631
  C         2.7292516028        2.7292527032        0.9091858083
  C         1.8191298797       -0.0011095001        1.8191292315
  C         2.7292530279        0.9091867692        2.7292522466
  C         1.8191290567        1.8191292156       -0.0011110078
       8
 i =        7, E =       -45.1150738435
  C         0.9104490963        2.7304301163        2.7304294051
  C         0.0007847030        0.0007846938        0.0007845233
  C         0.9103548735        0.9103553473        0.9103549237
  C         0.0001793944        1.8203760433        1.8203753542
  C         2.7304294589        2.7304298914        0.9104485497
  C         1.8203757020        0.0001800223        1.8203753682
  C         2.7304299401        0.9104491251        2.7304295846
  C         1.8203754400        1.8203755985        0.0001791161
       8
 i =        8, E =       -45.1150744259
  C         0.9101450394        2.7300473456        2.7300471354
  C         0.0001286550        0.0001288653        0.0001284615
  C         0.9099657415        0.9099659336        0.9099656062
  C        -0.0000504840        1.8200435725        1.8200433209
  C         2.7300472938        2.7300473542        0.9101449939
  C         1.8200434372       -0.0000503247        1.8200433334
  C         2.7300471871        0.9101452710        2.7300470905
  C         1.8200434924        1.8200436497       -0.0000506380
       8
 i =        9, E =       -45.1150744254
  C         0.9101450394        2.7300473456        2.7300471354
  C         0.0001286550        0.0001288653        0.0001284615
  C         0.9099657415        0.9099659336        0.9099656062
  C        -0.0000504840        1.8200435725        1.8200433209
  C         2.7300472938        2.7300473542        0.9101449939
  C         1.8200434372       -0.0000503247        1.8200433334
  C         2.7300471871        0.9101452710        2.7300470905
  C         1.8200434924        1.8200436497       -0.0000506380
