       3
 i =        0, time =        0.000, E =       -17.2192675424
  H         7.6494840704        8.2713985101        7.2900994549
  H         7.6256783471        6.7286014899        7.2418090373
  O         7.3505159296        7.4890220414        7.7581909628
       3
 i =        1, time =        0.500, E =       -17.2194164671
  H         7.6519260280        8.2668488483        7.2856430756
  H         7.6298595080        6.7289389320        7.2346548895
  O         7.3500895614        7.4892870125        7.7589266845
       3
 i =        2, time =        1.000, E =       -17.2195052563
  H         7.6546979293        8.2634011184        7.2806839379
  H         7.6340117513        6.7290830258        7.2275389228
  O         7.3496435474        7.4894949642        7.7596917360
       3
 i =        3, time =        1.500, E =       -17.2195336027
  H         7.6579271902        8.2607941600        7.2749883635
  H         7.6382034385        6.7294640275        7.2203683650
  O         7.3491655738        7.4896352434        7.7605066590
       3
 i =        4, time =        2.000, E =       -17.2195064484
  H         7.6612620129        8.2590817155        7.2691636843
  H         7.6419247168        6.7304076448        7.2140371551
  O         7.3487098812        7.4896839582        7.7612768517
       3
 i =        5, time =        2.500, E =       -17.2194402347
  H         7.6647463302        8.2579328930        7.2631155465
  H         7.6452340900        6.7322086715        7.2084619338
  O         7.3482700805        7.4896433751        7.7620134923
       3
 i =        6, time =        3.000, E =       -17.2193338646
  H         7.6686476604        8.2569609904        7.2563625728
  H         7.6483875649        6.7352969500        7.2032282420
  O         7.3478132394        7.4895107788        7.7627730007
       3
 i =        7, time =        3.500, E =       -17.2192108595
  H         7.6723132648        8.2559913353        7.2500152723
  H         7.6508984540        6.7393925917        7.1991555347
  O         7.3474111385        7.4893148312        7.7634337634
       3
 i =        8, time =        4.000, E =       -17.2190905456
  H         7.6755610587        8.2547554861        7.2443705450
  H         7.6527317255        6.7443914624        7.1962980894
  O         7.3470775570        7.4890789937        7.7639736346
       3
 i =        9, time =        4.500, E =       -17.2189905863
  H         7.6781194738        8.2531128700        7.2398862183
  H         7.6538427855        6.7498595750        7.1947074287
  O         7.3468325229        7.4888394423        7.7643605117
       3
 i =       10, time =        5.000, E =       -17.2188972715
  H         7.6801836805        8.2507391140        7.2362083116
  H         7.6544193929        6.7561724394        7.1940829603
  O         7.3466520452        7.4885929144        7.7646356339
       3
 i =       11, time =        5.500, E =       -17.2188215195
  H         7.6813299779        8.2480461729        7.2340876739
  H         7.6544653858        6.7618206303        7.1943308308
  O         7.3465626758        7.4884085165        7.7647576143
       3
 i =       12, time =        6.000, E =       -17.2187609317
  H         7.6816483956        8.2450523824        7.2333706506
  H         7.6541392270        6.7666314778        7.1951690226
  O         7.3465488704        7.4882959028        7.7647539279
       3
 i =       13, time =        6.500, E =       -17.2187016111
  H         7.6811992107        8.2414442909        7.2339355332
  H         7.6535074720        6.7709399397        7.1965026158
  O         7.3466027206        7.4882536530        7.7646382522
       3
 i =       14, time =        7.000, E =       -17.2186583500
  H         7.6801182120        8.2381041166        7.2356001290
  H         7.6527952729        6.7735937225        7.1978786159
  O         7.3467015597        7.4882987207        7.7644506314
       3
 i =       15, time =        7.500, E =       -17.2186564375
  H         7.6786745727        8.2356480173        7.2379380041
  H         7.6521681243        6.7741976957        7.1989902054
  O         7.3468180344        7.4884171388        7.7642372864
       3
 i =       16, time =        8.000, E =       -17.2187082758
  H         7.6766176899        8.2337567528        7.2413606782
  H         7.6515028170        6.7727766018        7.2000502625
  O         7.3469756895        7.4886274446        7.7639588980
       3
 i =       17, time =        8.500, E =       -17.2188031248
  H         7.6745680423        8.2332124929        7.2448484910
  H         7.6509439480        6.7696653169        7.2008300113
  O         7.3471263513        7.4888592335        7.7636941381
       3
 i =       18, time =        9.000, E =       -17.2189384597
  H         7.6725222137        8.2341453116        7.2484147758
  H         7.6503925350        6.7649542130        7.2015045324
  O         7.3472764494        7.4890986255        7.7634311350
       3
 i =       19, time =        9.500, E =       -17.2191029585
  H         7.6704125028        8.2368065779        7.2521901738
  H         7.6497060186        6.7585545560        7.2023133217
  O         7.3474392216        7.4893353773        7.7631465678
       3
 i =       20, time =       10.000, E =       -17.2192578362
  H         7.6684172192        8.2411210408        7.2558643448
  H         7.6487948496        6.7512147728        7.2034532747
  O         7.3476090886        7.4895270733        7.7628475807
       3
 i =       21, time =       10.500, E =       -17.2193771110
  H         7.6665582990        8.2469532769        7.2593918180
  H         7.6475344971        6.7434547474        7.2051681073
  O         7.3477925307        7.4896495003        7.7625216748
       3
 i =       22, time =       11.000, E =       -17.2194421952
  H         7.6650195864        8.2532645976        7.2623971622
  H         7.6459901600        6.7367014813        7.2074284302
  O         7.3479738894        7.4896782108        7.7621943411
       3
 i =       23, time =       11.500, E =       -17.2194674718
  H         7.6635544138        8.2603381323        7.2653199724
  H         7.6439484940        6.7305827935        7.2105787744
  O         7.3481821645        7.4896188450        7.7618161646
       3
 i =       24, time =       12.000, E =       -17.2194561202
  H         7.6620676715        8.2677612272        7.2682995594
  H         7.6413779558        6.7253931513        7.2146903413
  O         7.3484253930        7.4894788578        7.7613738705
       3
 i =       25, time =       12.500, E =       -17.2194183614
  H         7.6605088730        8.2748334855        7.2713820675
  H         7.6383873240        6.7214841244        7.2195969443
  O         7.3486999746        7.4892802110        7.7608750093
       3
 i =       26, time =       13.000, E =       -17.2193682720
  H         7.6588309990        8.2809700664        7.2746143838
  H         7.6351293535        6.7189685378        7.2250431696
  O         7.3489993107        7.4890526148        7.7603327087
       3
 i =       27, time =       13.500, E =       -17.2193190602
  H         7.6570645004        8.2855843153        7.2779104164
  H         7.6318879571        6.7178119267        7.2305400659
  O         7.3493036366        7.4888351667        7.7597831865
       3
 i =       28, time =       14.000, E =       -17.2192655654
  H         7.6550248875        8.2889250275        7.2816010601
  H         7.6285034783        6.7176628096        7.2363410894
  O         7.3496346494        7.4886343117        7.7591896203
       3
 i =       29, time =       14.500, E =       -17.2192005098
  H         7.6527953225        8.2907733859        7.2855310590
  H         7.6252568003        6.7182218763        7.2419470306
  O         7.3499694700        7.4884826624        7.7585932292
       3
 i =       30, time =       15.000, E =       -17.2191110321
  H         7.6503146261        8.2912319184        7.2898113750
  H         7.6221630733        6.7191498500        7.2473120991
  O         7.3503109859        7.4883951269        7.7579898996
       3
 i =       31, time =       15.500, E =       -17.2190107766
  H         7.6479668244        8.2904273966        7.2937908004
  H         7.6197481943        6.7199429491        7.2515049850
  O         7.3506018719        7.4883954500        7.7574793231
       3
 i =       32, time =       16.000, E =       -17.2189395491
  H         7.6461992974        8.2888918672        7.2967329215
  H         7.6184098011        6.7201990592        7.2538203959
  O         7.3507888256        7.4884754812        7.7571523400
       3
 i =       33, time =       16.500, E =       -17.2188767912
  H         7.6443036832        8.2862314144        7.2998299215
  H         7.6175796888        6.7198545193        7.2552292178
  O         7.3509521067        7.4886641166        7.7568727070
       3
 i =       34, time =       17.000, E =       -17.2188441093
  H         7.6429579605        8.2835240401        7.3019814209
  H         7.6175444356        6.7189144539        7.2552403434
  O         7.3510309007        7.4888931439        7.7567407138
       3
 i =       35, time =       17.500, E =       -17.2188481834
  H         7.6422403108        8.2810909708        7.3030718808
  H         7.6182227520        6.7174849795        7.2539994689
  O         7.3510252538        7.4891356902        7.7567544815
       3
 i =       36, time =       18.000, E =       -17.2188901455
  H         7.6421875680        8.2789622545        7.3030398092
  H         7.6196215033        6.7156140712        7.2514977396
  O         7.3509322807        7.4893868888        7.7569184562
       3
 i =       37, time =       18.500, E =       -17.2189613361
  H         7.6428855523        8.2775986842        7.3017645676
  H         7.6214655970        6.7138375924        7.2482379448
  O         7.3507637646        7.4895840006        7.7572085742
       3
 i =       38, time =       19.000, E =       -17.2190480397
  H         7.6441747108        8.2771557867        7.2995286399
  H         7.6233376579        6.7127086890        7.2449677242
  O         7.3505559497        7.4896824177        7.7575599308
       3
 i =       39, time =       19.500, E =       -17.2191687016
  H         7.6465454792        8.2773517201        7.2954747202
  H         7.6258872952        6.7120849598        7.2405648879
  O         7.3502369607        7.4897088814        7.7580972074
       3
 i =       40, time =       20.000, E =       -17.2192721923
  H         7.6494247371        8.2779282411        7.2905705831
  H         7.6284573274        6.7124479005        7.2361840297
  O         7.3498841812        7.4896493810        7.7586866854
       3
 i =       41, time =       20.500, E =       -17.2193499750
  H         7.6527007492        8.2785391742        7.2849879493
  H         7.6309905872        6.7139992870        7.2319346804
  O         7.3495082371        7.4895130262        7.7593106261
       3
 i =       42, time =       21.000, E =       -17.2194000351
  H         7.6563501040        8.2788200126        7.2787461253
  H         7.6335256236        6.7169477914        7.2277626689
  O         7.3491081541        7.4893096443        7.7599712083
       3
 i =       43, time =       21.500, E =       -17.2194222020
  H         7.6601558372        8.2783637965        7.2721939074
  H         7.6359880052        6.7213235381        7.2237972640
  O         7.3487022926        7.4890629881        7.7606383022
       3
 i =       44, time =       22.000, E =       -17.2194205639
  H         7.6640366529        8.2767784332        7.2654483801
  H         7.6384223914        6.7272039852        7.2199662998
  O         7.3482929780        7.4887928915        7.7613090709
       3
 i =       45, time =       22.500, E =       -17.2193970073
  H         7.6677229280        8.2737952256        7.2589565593
  H         7.6407775730        6.7342845243        7.2163399780
  O         7.3479004273        7.4885354843        7.7619509215
       3
 i =       46, time =       23.000, E =       -17.2193471389
  H         7.6711196723        8.2691760263        7.2528675849
  H         7.6431264502        6.7423908109        7.2127832356
  O         7.3475260643        7.4883167605        7.7625629550
       3
 i =       47, time =       23.500, E =       -17.2192709113
  H         7.6738170160        8.2633561388        7.2479090979
  H         7.6453131548        6.7503726830        7.2094969582
  O         7.3472055550        7.4881817607        7.7630866626
       3
 i =       48, time =       24.000, E =       -17.2191677646
  H         7.6757915642        8.2565666239        7.2441342827
  H         7.6474025002        6.7577779593        7.2063440040
  O         7.3469363512        7.4881443804        7.7635273359
       3
 i =       49, time =       24.500, E =       -17.2190211985
  H         7.6771992448        8.2486444985        7.2412662330
  H         7.6496022614        6.7647042613        7.2029738968
  O         7.3466955879        7.4882086838        7.7639245116
       3
 i =       50, time =       25.000, E =       -17.2188399854
  H         7.6779957197        8.2407256648        7.2394463213
  H         7.6517619967        6.7701874813        7.1995889400
  O         7.3464955478        7.4883637976        7.7642565536
       3
 i =       51, time =       25.500, E =       -17.2186053286
  H         7.6783892270        8.2324496240        7.2382966712
  H         7.6541376903        6.7745566855        7.1957694407
  O         7.3463070107        7.4886116516        7.7645737287
       3
 i =       52, time =       26.000, E =       -17.2183388394
  H         7.6785074739        8.2248770483        7.2376594871
  H         7.6565750765        6.7773582346        7.1917537644
  O         7.3461316356        7.4889139785        7.7648709792
       3
 i =       53, time =       26.500, E =       -17.2180440439
  H         7.6785348794        8.2180493858        7.2372210069
  H         7.6592107424        6.7786922638        7.1873137275
  O         7.3459491971        7.4892618532        7.7651824606
       3
 i =       54, time =       27.000, E =       -17.2178300096
  H         7.6786434976        8.2138865236        7.2367970807
  H         7.6614090880        6.7783782181        7.1835284085
  O         7.3457888714        7.4895457079        7.7654518020
       3
 i =       55, time =       27.500, E =       -17.2177478105
  H         7.6789437104        8.2126028635        7.2362109072
  H         7.6630513093        6.7767208581        7.1806190127
  O         7.3456512268        7.4897328398        7.7656762012
       3
 i =       56, time =       28.000, E =       -17.2178036684
  H         7.6795011218        8.2141827147        7.2353492016
  H         7.6641797583        6.7737966952        7.1785173454
  O         7.3455295116        7.4898194193        7.7658670817
       3
 i =       57, time =       28.500, E =       -17.2179692276
  H         7.6802319403        8.2185252320        7.2343497922
  H         7.6645809659        6.7700052944        7.1776121556
  O         7.3454424929        7.4897866317        7.7659912556
       3
 i =       58, time =       29.000, E =       -17.2181758115
  H         7.6809067142        8.2247362911        7.2335543063
  H         7.6641241303        6.7660605930        7.1781685753
  O         7.3454129378        7.4896458285        7.7660104867
       3
 i =       59, time =       29.500, E =       -17.2183884471
  H         7.6813652885        8.2325457295        7.2332215468
  H         7.6627546322        6.7620062999        7.1802824245
  O         7.3454544789        7.4894112722        7.7659024300
       3
 i =       60, time =       30.000, E =       -17.2185725683
  H         7.6813744904        8.2409484008        7.2336930028
  H         7.6605405391        6.7582074141        7.1838578569
  O         7.3455776369        7.4891232850        7.7656516130
       3
 i =       61, time =       30.500, E =       -17.2187345499
  H         7.6807345642        8.2497331893        7.2352986175
  H         7.6574161426        6.7545641730        7.1890015106
  O         7.3457992614        7.4888014323        7.7652305447
       3
 i =       62, time =       31.000, E =       -17.2188742159
  H         7.6793652688        8.2574316317        7.2380910343
  H         7.6538093044        6.7514446862        7.1950014866
  O         7.3460976005        7.4885149901        7.7646807750
       3
 i =       63, time =       31.500, E =       -17.2190215391
  H         7.6770670187        8.2642936575        7.2424264347
  H         7.6495485068        6.7484768609        7.2021303049
  O         7.3464961355        7.4882715886        7.7639627199
       3
 i =       64, time =       32.000, E =       -17.2191662451
  H         7.6741222482        8.2692232345        7.2477575192
  H         7.6453309452        6.7458567197        7.2092051394
  O         7.3469332854        7.4881278398        7.7631853960
       3
 i =       65, time =       32.500, E =       -17.2193155645
  H         7.6703378471        8.2726410475        7.2544391577
  H         7.6409395808        6.7431296305        7.2165719130
  O         7.3474349237        7.4880858230        7.7623046647
       3
 i =       66, time =       33.000, E =       -17.2194430327
  H         7.6655777104        8.2747596073        7.2627164388
  H         7.6362806714        6.7399038539        7.2243688679
  O         7.3480155956        7.4881567666        7.7612963772
       3
 i =       67, time =       33.500, E =       -17.2194957621
  H         7.6603252293        8.2756311236        7.2717639939
  H         7.6318285879        6.7361726839        7.2317832303
  O         7.3486150419        7.4883377434        7.7602637200
       3
 i =       68, time =       34.000, E =       -17.2194248374
  H         7.6541729289        8.2757018891        7.2823054159
  H         7.6271993653        6.7312927284        7.2394353890
  O         7.3492831212        7.4886411601        7.7591219969
       3
 i =       69, time =       34.500, E =       -17.2192191376
  H         7.6484199663        8.2754946005        7.2921459946
  H         7.6232592531        6.7259711992        7.2458821388
  O         7.3498834719        7.4889895047        7.7581003828
       3
 i =       70, time =       35.000, E =       -17.2189292841
  H         7.6433751603        8.2756150819        7.3007925801
  H         7.6200445614        6.7203040593        7.2510664718
  O         7.3503942603        7.4893386270        7.7572335442
       3
 i =       71, time =       35.500, E =       -17.2185943784
  H         7.6389008393        8.2766265076        7.3085140499
  H         7.6172950964        6.7140049481        7.2554173158
  O         7.3508404519        7.4896711648        7.7564775285
       3
 i =       72, time =       36.000, E =       -17.2183176441
  H         7.6356557006        8.2788343828        7.3142002111
  H         7.6152505715        6.7079899167        7.2585768321
  O         7.3511653782        7.4899102274        7.7559248185
       3
 i =       73, time =       36.500, E =       -17.2181461486
  H         7.6336853075        8.2823606994        7.3177799893
  H         7.6138162671        6.7025555186        7.2607243742
  O         7.3513720160        7.4900295278        7.7555685838
       3
 i =       74, time =       37.000, E =       -17.2180810527
  H         7.6329606012        8.2870052095        7.3192913582
  H         7.6129191153        6.6980670953        7.2620062356
  O         7.3514666198        7.4900187228        7.7553971989
       3
 i =       75, time =       37.500, E =       -17.2180797947
  H         7.6333260914        8.2926441294        7.3189932750
  H         7.6124419509        6.6945589284        7.2626251810
  O         7.3514662148        7.4898834877        7.7553815635
       3
 i =       76, time =       38.000, E =       -17.2180958103
  H         7.6345729756        8.2983498887        7.3171896709
  H         7.6123629703        6.6924760586        7.2626443319
  O         7.3513851982        7.4896542464        7.7554985411
       3
 i =       77, time =       38.500, E =       -17.2181001278
  H         7.6365978306        8.3039591041        7.3140480782
  H         7.6126480911        6.6917963495        7.2621209006
  O         7.3512321293        7.4893427101        7.7557339641
       3
 i =       78, time =       39.000, E =       -17.2180838885
  H         7.6392819924        8.3089356794        7.3097406721
  H         7.6133243709        6.6926683609        7.2610172302
  O         7.3510126880        7.4889733231        7.7560793482
       3
 i =       79, time =       39.500, E =       -17.2180777506
  H         7.6421938461        8.3121566431        7.3049416087
  H         7.6143653933        6.6950744895        7.2593776488
  O         7.3507556400        7.4886179760        7.7564894201
       3
 i =       80, time =       40.000, E =       -17.2181361677
  H         7.6449176177        8.3129148117        7.3003220441
  H         7.6157120651        6.6986961324        7.2572850530
  O         7.3504908576        7.4883413195        7.7569166776
       3
 i =       81, time =       40.500, E =       -17.2182988661
  H         7.6474553758        8.3110166375        7.2958674042
  H         7.6174574586        6.7035015659        7.2545783016
  O         7.3502123570        7.4881575542        7.7573722063
       3
 i =       82, time =       41.000, E =       -17.2185669284
  H         7.6497224540        8.3063822095        7.2917181834
  H         7.6196357523        6.7092461432        7.2511848019
  O         7.3499233040        7.4880871304        7.7578517476
       3
 i =       83, time =       41.500, E =       -17.2189083823
  H         7.6517561502        8.2989998633        7.2878100019
  H         7.6223414170        6.7158143714        7.2469361544
  O         7.3496153683        7.4881380676        7.7583699880
       3
 i =       84, time =       42.000, E =       -17.2192485890
  H         7.6536014265        8.2891698357        7.2840833190
  H         7.6256103613        6.7229392796        7.2417554229
  O         7.3492834113        7.4883082963        7.7589355458
       3
 i =       85, time =       42.500, E =       -17.2194957686
  H         7.6553878057        8.2773308922        7.2803417870
  H         7.6294888905        6.7304179855        7.2355515013
  O         7.3489163205        7.4885829809        7.7595665470
       3
 i =       86, time =       43.000, E =       -17.2195673765
  H         7.6571380837        8.2652803497        7.2766500682
  H         7.6336114017        6.7373674445        7.2288991242
  O         7.3485356254        7.4889045445        7.7602227157
       3
 i =       87, time =       43.500, E =       -17.2194666186
  H         7.6591111063        8.2535136503        7.2725937359
  H         7.6380309416        6.7438328947        7.2217098459
  O         7.3481216429        7.4892388934        7.7609357299
       3
 i =       88, time =       44.000, E =       -17.2192362612
  H         7.6615334895        8.2427520945        7.2678265038
  H         7.6426951387        6.7497747704        7.2140707584
  O         7.3476633390        7.4895430636        7.7617219011
       3
 i =       89, time =       44.500, E =       -17.2189628152
  H         7.6645014415        8.2340046417        7.2622420199
  H         7.6473483321        6.7549931753        7.2064079197
  O         7.3471706841        7.4897660973        7.7625610720
       3
 i =       90, time =       45.000, E =       -17.2187226438
  H         7.6680696496        8.2277710456        7.2557756607
  H         7.6518197190        6.7594864537        7.1990138390
  O         7.3466509453        7.4898766551        7.7634388655
       3
 i =       91, time =       45.500, E =       -17.2185650461
  H         7.6718815803        8.2246002181        7.2490694014
  H         7.6556073253        6.7629791591        7.1927322306
  O         7.3461581835        7.4898575559        7.7642616564
       3
 i =       92, time =       46.000, E =       -17.2184492917
  H         7.6761238750        8.2239335274        7.2417715692
  H         7.6589494014        6.7659039173        7.1871806091
  O         7.3456656982        7.4897167531        7.7650756616
       3
 i =       93, time =       46.500, E =       -17.2183212829
  H         7.6805063901        8.2253806732        7.2343562256
  H         7.6616932709        6.7683090596        7.1826232901
  O         7.3452014242        7.4894758181        7.7658343199
       3
 i =       94, time =       47.000, E =       -17.2181332315
  H         7.6848457333        8.2284368620        7.2271080106
  H         7.6638151306        6.7703257036        7.1791086622
  O         7.3447784999        7.4891583027        7.7665166104
       3
 i =       95, time =       47.500, E =       -17.2178737100
  H         7.6888616403        8.2325413946        7.2204741154
  H         7.6652536184        6.7720143340        7.1767451715
  O         7.3444185476        7.4887957230        7.7670874993
       3
 i =       96, time =       48.000, E =       -17.2176100348
  H         7.6919325446        8.2367542516        7.2154639564
  H         7.6658580926        6.7732585566        7.1757837581
  O         7.3441703288        7.4884546180        7.7674675816
       3
 i =       97, time =       48.500, E =       -17.2174654947
  H         7.6934464130        8.2399383115        7.2130592036
  H         7.6656103543        6.7738872448        7.1762454250
  O         7.3440736926        7.4882173440        7.7675937279
       3
 i =       98, time =       49.000, E =       -17.2174741511
  H         7.6936004690        8.2422753368        7.2129326114
  H         7.6645880951        6.7739776714        7.1780013721
  O         7.3441114783        7.4880674665        7.7674947451
       3
 i =       99, time =       49.500, E =       -17.2176576137
  H         7.6923265974        8.2437271851        7.2151983266
  H         7.6627783110        6.7734277007        7.1810676870
  O         7.3442889327        7.4880137175        7.7671624968
       3
 i =      100, time =       50.000, E =       -17.2179757460
  H         7.6897631898        8.2441556195        7.2196113857
  H         7.6604246422        6.7721567909        7.1850226266
  O         7.3445821300        7.4880697671        7.7666390542
       3
 i =      101, time =       50.500, E =       -17.2183816141
  H         7.6859015298        8.2437593767        7.2261979701
  H         7.6575027501        6.7699677673        7.1898963721
  O         7.3449932674        7.4882354147        7.7659209253
       3
 i =      102, time =       51.000, E =       -17.2187905812
  H         7.6808648351        8.2428507120        7.2347650553
  H         7.6540659054        6.7666813044        7.1955874488
  O         7.3455113542        7.4885021859        7.7650267149
       3
 i =      103, time =       51.500, E =       -17.2190999519
  H         7.6750873199        8.2419483564        7.2445993849
  H         7.6503228457        6.7622942940        7.2017387006
  O         7.3460960182        7.4888375102        7.7640238888
       3
 i =      104, time =       52.000, E =       -17.2192586885
  H         7.6687833672        8.2416520361        7.2553683798
  H         7.6462814557        6.7566624195        7.2083285600
  O         7.3467333570        7.4892126503        7.7629347480
       3
 i =      105, time =       52.500, E =       -17.2192707073
  H         7.6629747593        8.2426266748        7.2653619979
  H         7.6424340128        6.7504352235        7.2145526455
  O         7.3473280764        7.4895447724        7.7619176582
