       8
 i =        1, E =       -45.0850719465
  C         0.8908294579        2.6568945634        2.6569004579
  C         0.0275893211        0.0275807764        0.0275872275
  C         0.9039383570        0.9039422703        0.9039433556
  C         0.0158864658        1.7786377464        1.7786249201
  C         2.6568918651        2.6569060594        0.8908274464
  C         1.7786298479        0.0158961830        1.7786375626
  C         2.6569110865        0.8908280528        2.6568997824
  C         1.7786342219        1.7786250348        0.0158899274
       8
 i =        2, E =       -45.0852424910
  C         0.8885053445        2.6523062579        2.6523131107
  C         0.0282938803        0.0282826163        0.0282912457
  C         0.9061290478        0.9061319225        0.9061335500
  C         0.0116131449        1.7746056114        1.7745894462
  C         2.6523004009        2.6523195020        0.8885008149
  C         1.7745951859        0.0116243378        1.7746056177
  C         2.6523256367        0.8885024842        2.6523129619
  C         1.7745998392        1.7745888272        0.0116158203
       8
 i =        3, E =       -45.0853819300
  C         0.8803694421        2.6460001618        2.6460080219
  C         0.0288818703        0.0288651146        0.0288790009
  C         0.9074160916        0.9074188682        0.9074222376
  C         0.0015825684        1.7689545094        1.7689317106
  C         2.6459894532        2.6460164958        0.8803619603
  C         1.7689405662        0.0015978339        1.7689547821
  C         2.6460268709        0.8803651966        2.6460096860
  C         1.7689447761        1.7689299595        0.0015848312
       8
 i =        4, E =       -45.0855348691
  C         0.8449030587        2.6248162892        2.6248278269
  C         0.0326248509        0.0325849472        0.0326207640
  C         0.9124113051        0.9124159957        0.9124263252
  C        -0.0387886898        1.7489172724        1.7488712781
  C         2.6247891453        2.6248445590        0.8448850784
  C         1.7488916481       -0.0387567638        1.7489186366
  C         2.6248720336        0.8448921813        2.6248377554
  C         1.7488936803        1.7488635603       -0.0387854872
       8
 i =        5, E =       -45.0857335690
  C         0.8378986026        2.6247040721        2.6247189327
  C         0.0350896715        0.0350435674        0.0350819533
  C         0.9153742703        0.9153880143        0.9153924100
  C        -0.0460802276        1.7478306476        1.7477814943
  C         2.6246774650        2.6247410040        0.8378773593
  C         1.7477971954       -0.0460414538        1.7478284387
  C         2.6247656333        0.8378813714        2.6247262610
  C         1.7478088344        1.7477701054       -0.0460723825
       8
 i =        6, E =       -45.0825185716
  C         0.7537152537        2.6066565873        2.6067150521
  C         0.0634641269        0.0633364456        0.0634129330
  C         0.9494340405        0.9495452572        0.9494912708
  C        -0.1353365019        1.7234713364        1.7233796457
  C         2.6066318586        2.6067890290        0.7536523917
  C         1.7233436037       -0.1352135114        1.7234238476
  C         2.6067961857        0.7536148575        2.6067042952
  C         1.7234593174        1.7233252025       -0.1352817926
       8
 i =        7, E =       -45.0859271276
  C         0.8330103593        2.6290872265        2.6291163397
  C         0.0388318722        0.0387617710        0.0388043466
  C         0.9203928317        0.9204485354        0.9204241596
  C        -0.0492267365        1.7494966598        1.7494499134
  C         2.6290737754        2.6291521347        0.8329769235
  C         1.7494325423       -0.0491608210        1.7494707799
  C         2.6291612741        0.8329553062        2.6291182772
  C         1.7494869605        1.7494218213       -0.0491997681
       8
 i =        8, E =       -45.0859796631
  C         0.8294425716        2.6293543129        2.6293884087
  C         0.0417487263        0.0416528260        0.0417056733
  C         0.9236938171        0.9237802856        0.9237380855
  C        -0.0526137200        1.7496691827        1.7496228568
  C         2.6293447336        2.6294371081        0.8293958073
  C         1.7495856496       -0.0525202429        1.7496265301
  C         2.6294416494        0.8293560174        2.6293976238
  C         1.7496630213        1.7495803539       -0.0525715563
       8
 i =        9, E =       -45.0860241328
  C         0.8158968840        2.6294402355        2.6294869101
  C         0.0533392097        0.0530812489        0.0532075153
  C         0.9371471536        0.9374106263        0.9372718214
  C        -0.0670748891        1.7489059034        1.7488641158
  C         2.6294408897        2.6296145991        0.8157675926
  C         1.7487225032       -0.0668158835        1.7487689920
  C         2.6296041591        0.8156282964        2.6295600345
  C         1.7489101843        1.7487354987       -0.0669459967
       8
 i =       10, E =       -45.0860507219
  C         0.8223772823        2.6299605316        2.6299922482
  C         0.0494769623        0.0492039407        0.0493423199
  C         0.9326883200        0.9329561009        0.9328190318
  C        -0.0606339196        1.7497491371        1.7497114636
  C         2.6299530103        2.6301268868        0.8222412789
  C         1.7495740248       -0.0603623816        1.7496103608
  C         2.6301239617        0.8221023648        2.6300878070
  C         1.7497460187        1.7495794780       -0.0605024405
       8
 i =       11, E =       -45.0860576087
  C         0.8226596037        2.6306388997        2.6306565916
  C         0.0511092744        0.0507035129        0.0509086675
  C         0.9344533513        0.9348525977        0.9346479378
  C        -0.0607827775        1.7504103079        1.7503874384
  C         2.6306297328        2.6308560203        0.8224576282
  C         1.7501805538       -0.0603804608        1.7502040387
  C         2.6308503083        0.8222492917        2.6308285459
  C         1.7504076383        1.7501895394       -0.0605861366
       8
 i =       12, E =       -45.0860840851
  C         0.8283947053        2.6365694991        2.6364418373
  C         0.0607966544        0.0592353938        0.0600251615
  C         0.9440764069        0.9456098839        0.9448263245
  C        -0.0574619746        1.7565636441        1.7566828631
  C         2.6365394771        2.6372027526        0.8276187721
  C         1.7558816041       -0.0559238683        1.7557731536
  C         2.6371797982        0.8268129675        2.6373016592
  C         1.7565563133        1.7559164429       -0.0567040812
       8
 i =       13, E =       -45.0861060573
  C         0.8382251869        2.6447316840        2.6443221640
  C         0.0714705553        0.0679104365        0.0697130667
  C         0.9533434260        0.9568245341        0.9550469334
  C        -0.0502492304        1.7653790887        1.7657721613
  C         2.6446689484        2.6460572352        0.8364641872
  C         1.7639533064       -0.0467548590        1.7635899587
  C         2.6460070241        0.8346336020        2.6464070930
  C         1.7653648499        1.7640313865       -0.0485229822
       8
 i =       14, E =       -45.0861240117
  C         0.8494046196        2.6526947078        2.6517553335
  C         0.0810507889        0.0740620891        0.0776054484
  C         0.9593674944        0.9661496446        0.9626875091
  C        -0.0421291100        1.7746279640        1.7755292202
  C         2.6525921967        2.6551795585        0.8459863157
  C         1.7719890498       -0.0353007710        1.7711587913
  C         2.6550911766        0.8424286529        2.6560209516
  C         1.7745976029        1.7721491606       -0.0387440373
       8
 i =       15, E =       -45.0861453202
  C         0.8526329234        2.6535634339        2.6520136512
  C         0.0829924023        0.0723092332        0.0777311234
  C         0.9569486467        0.9672899371        0.9620067568
  C        -0.0415217801        1.7768285129        1.7783328326
  C         2.6534462395        2.6572915840        0.8474753193
  C         1.7729032227       -0.0311183168        1.7715546562
  C         2.6571406626        0.8420749872        2.6587149812
  C         1.7767737266        1.7732003048       -0.0363268595
       8
 i =       16, E =       -45.0862851193
  C         0.8765232773        2.6583457494        2.6518799738
  C         0.1017023621        0.0610306309        0.0817113799
  C         0.9427605728        0.9821077741        0.9619864608
  C        -0.0425577859        1.7919743804        1.7985070621
  C         2.6581131625        2.6721891335        0.8571719330
  C         1.7776228982       -0.0029575343        1.7720570355
  C         2.6714130843        0.8366381793        2.6783071806
  C         1.7918372429        1.7790178537       -0.0225031843
       8
 i =       17, E =       -45.0506389706
  C         1.0882743503        2.6992365049        2.6487709286
  C         0.2670892816       -0.0418885311        0.1153166132
  C         0.8137435848        1.1125952413        0.9597046510
  C        -0.0537566750        1.9255658572        1.9771587099
  C         2.6980075166        2.8035822407        0.9419570292
  C         1.8179542954        0.2470424657        1.7746577203
  C         2.7971623527        0.7859970694        2.8517232316
  C         1.9247204445        1.8292258688        0.0992865173
       8
 i =       18, E =       -45.0855796996
  C         0.8654182691        2.6149266778        2.5974196189
  C         0.0765251641       -0.0194528581        0.0296427010
  C         0.8535257673        0.9459395172        0.8983385364
  C        -0.0957571330        1.7662579632        1.7841070980
  C         2.6143575735        2.6456954188        0.8201094358
  C         1.7341748090       -0.0029575343        1.7194490660
  C         2.6432386273        0.7715319725        2.6622564217
  C         1.7658909342        1.7383223313       -0.0483328007
       8
 i =       19, E =       -45.0867556711
  C         1.0829192331        2.8221523463        2.8046166307
  C         0.3117003988        0.2119604125        0.2625614822
  C         1.0983165426        1.1959395172        1.1450712315
  C         0.1036188618        1.9736076298        1.9915775083
  C         2.8221367703        2.8539945342        1.0349407154
  C         1.9408968626        0.2023331233        1.9249786040
  C         2.8530030264        0.9843278338        2.8706103553
  C         1.9744946724        1.9436942705        0.1528629824
       8
 i =       20, E =       -45.0874800161
  C         1.0573003963        2.8035799935        2.7733082138
  C         0.2959996080        0.1858540219        0.2410522258
  C         1.0721216631        1.1775020539        1.1180256026
  C         0.0713292311        1.9470335459        1.9824119577
  C         2.8088522253        2.8317750334        1.0065315018
  C         1.9219652926        0.1759785814        1.8963214972
  C         2.8228961379        0.9487541302        2.8582764945
  C         1.9526732439        1.9328233941        0.1296998078
       8
 i =       21, E =       -45.0874607107
  C         1.0135957736        2.7668721911        2.7267898392
  C         0.2568550944        0.1369860481        0.2009284850
  C         1.0204183209        1.1329907061        1.0725540686
  C         0.0234173366        1.9033729534        1.9541688852
  C         2.7706580457        2.7849809437        0.9612730953
  C         1.8869429845        0.1356315773        1.8495658166
  C         2.7756632141        0.8954710017        2.8307280115
  C         1.9085592799        1.8990702362        0.0862143007
       8
 i =       22, E =       -45.0877115619
  C         1.0577806852        2.8089828639        2.7639723831
  C         0.3073860705        0.1797847548        0.2474234147
  C         1.0650881947        1.1848257698        1.1202604567
  C         0.0586408099        1.9429862532        2.0010382317
  C         2.8138196499        2.8256052686        1.0028373372
  C         1.9291404546        0.1779885442        1.8858414798
  C         2.8142265238        0.9316401729        2.8780696159
  C         1.9497484260        1.9431555805        0.1254998086
       8
 i =       23, E =       -45.0877330585
  C         1.0608673081        2.8086701589        2.7677580566
  C         0.3088055741        0.1802597453        0.2496952840
  C         1.0651899066        1.1857377507        1.1224967411
  C         0.0604545361        1.9439149517        2.0047393010
  C         2.8154049814        2.8284337218        1.0085606894
  C         1.9291699099        0.1809585956        1.8888743266
  C         2.8144659141        0.9329872670        2.8818838474
  C         1.9528946138        1.9450579534        0.1309617749
       8
 i =       24, E =       -45.0877593919
  C         1.0625745512        2.8066650314        2.7731820731
  C         0.3104186857        0.1790066720        0.2543566779
  C         1.0631619162        1.1862683765        1.1269643367
  C         0.0593885025        1.9427371483        2.0122550300
  C         2.8166919972        2.8302098996        1.0164698652
  C         1.9279662135        0.1832429845        1.8930814076
  C         2.8124831963        0.9307549782        2.8901519826
  C         1.9553759741        1.9468458087        0.1384232796
       8
 i =       25, E =       -45.0877975596
  C         1.0570588512        2.7977828227        2.7772126433
  C         0.3042036537        0.1712600978        0.2558433735
  C         1.0541448161        1.1787857432        1.1287212172
  C         0.0523797654        1.9350782122        2.0166282142
  C         2.8113364189        2.8253814104        1.0216739453
  C         1.9199483511        0.1783435931        1.8957276067
  C         2.8041419610        0.9222931961        2.8951217028
  C         1.9511600622        1.9412283708        0.1438330172
       8
 i =       26, E =       -45.0868278890
  C         0.9964533656        2.7172194954        2.8032800380
  C         0.2377868146        0.0968887717        0.2626627257
  C         0.9704850342        1.1027868573        1.1370423945
  C        -0.0147516594        1.8610848226        2.0436771399
  C         2.7542664973        2.7692254231        1.0539060863
  C         1.8454665238        0.1228419043        1.9124767981
  C         2.7265489660        0.8437802666        2.9263301346
  C         1.8995863029        1.8811621523        0.1783815623
       8
 i =       27, E =       -45.0878862988
  C         1.0495421118        2.7876269288        2.7913487906
  C         0.2969373759        0.1622668737        0.2679006425
  C         1.0440339405        1.1703481776        1.1416542438
  C         0.0434213017        1.9257442014        2.0317872249
  C         2.8049973495        2.8181534756        1.0361473704
  C         1.9107251014        0.1709965713        1.9082649054
  C         2.7942017607        0.9114745559        2.9106504145
  C         1.9448014070        1.9338821848        0.1587332534
       8
 i =       28, E =       -45.0879388663
  C         1.0407391025        2.7791157552        2.7910668299
  C         0.2866137861        0.1526442125        0.2665169076
  C         1.0338148327        1.1595256848        1.1402143641
  C         0.0353352947        1.9166536687        2.0314587244
  C         2.7963277225        2.8085265042        1.0356114614
  C         1.9023687508        0.1623160605        1.9077048746
  C         2.7851439231        0.9026673526        2.9100110159
  C         1.9354967386        1.9246274503        0.1588150781
       8
 i =       29, E =       -45.0879606510
  C         1.0246873058        2.7681407594        2.8038602535
  C         0.2730587898        0.1378718809        0.2834546478
  C         1.0186173465        1.1443018732        1.1570520645
  C         0.0188074570        1.9015145575        2.0490237606
  C         2.7823212938        2.7895176125        1.0461043474
  C         1.8922644658        0.1464271249        1.9203320612
  C         2.7706455194        0.8843690737        2.9276516538
  C         1.9174828475        1.9094370621        0.1707131136
       8
 i =       30, E =       -45.0880315138
  C         1.0298298651        2.7763233193        2.7945013691
  C         0.2782515770        0.1465374128        0.2750184766
  C         1.0288571885        1.1510146733        1.1485156526
  C         0.0270211107        1.9101982856        2.0355393465
  C         2.7866509004        2.7956751611        1.0345924682
  C         1.8996020117        0.1510551186        1.9131477194
  C         2.7806030219        0.8951890642        2.9137670539
  C         1.9222823506        1.9141220968        0.1590638465
       8
 i =       31, E =       -45.0880409709
  C         1.0325444304        2.7800419438        2.7978158744
  C         0.2815485582        0.1488838673        0.2804037637
  C         1.0319812950        1.1543430826        1.1536988310
  C         0.0294998403        1.9127135147        2.0409571348
  C         2.7895306416        2.7973296512        1.0386492652
  C         1.9032951109        0.1534981720        1.9175625755
  C         2.7835742537        0.8983113626        2.9191650521
  C         1.9234659622        1.9170968994        0.1633993685
       8
 i =       32, E =       -45.0880453387
  C         1.0293748689        2.7785271831        2.7977745429
  C         0.2785494897        0.1474720739        0.2804766027
  C         1.0310435571        1.1514999188        1.1537860604
  C         0.0281651100        1.9109101981        2.0393669488
  C         2.7866991377        2.7944442180        1.0373895020
  C         1.9017621903        0.1501389984        1.9183410423
  C         2.7824236625        0.8977055001        2.9174872860
  C         1.9201120814        1.9140969087        0.1624652311
       8
 i =       33, E =       -45.0880469222
  C         1.0294442747        2.7784036223        2.7977938368
  C         0.2784114975        0.1473114295        0.2803058059
  C         1.0308436457        1.1513560310        1.1536446805
  C         0.0282303042        1.9107020348        2.0394511304
  C         2.7866768844        2.7944546916        1.0376711506
  C         1.9016566281        0.1502271047        1.9182974093
  C         2.7820943045        0.8978203427        2.9176066122
  C         1.9200900487        1.9142049575        0.1626586998
       8
 i =       34, E =       -45.0880613653
  C         1.0291470351        2.7777365307        2.7976475855
  C         0.2773821411        0.1466465264        0.2794678491
  C         1.0301795721        1.1504183273        1.1529615474
  C         0.0284612217        1.9088177817        2.0394042376
  C         2.7860873508        2.7943685206        1.0395560239
  C         1.9011656722        0.1506611275        1.9180862886
  C         2.7795751545        0.8991069513        2.9184906482
  C         1.9193584896        1.9153295173        0.1633429831
       8
 i =       35, E =       -45.0880775742
  C         1.0284817113        2.7775969799        2.7961345826
  C         0.2768986371        0.1461551521        0.2785108882
  C         1.0294971798        1.1501865690        1.1520017616
  C         0.0278653906        1.9069836259        2.0390294034
  C         2.7856955410        2.7940461062        1.0400738556
  C         1.9009053929        0.1510037474        1.9166132288
  C         2.7771366977        0.8996126800        2.9190398793
  C         1.9182238728        1.9166536885        0.1628643285
       8
 i =       36, E =       -45.0881178575
  C         1.0266822554        2.7771372351        2.7944044325
  C         0.2767379604        0.1462422391        0.2784717629
  C         1.0291713131        1.1510458240        1.1522510922
  C         0.0258359785        1.9044389009        2.0385598936
  C         2.7843114459        2.7940586660        1.0412067043
  C         1.8998744745        0.1513518907        1.9151267948
  C         2.7733056130        0.9001668440        2.9205351983
  C         1.9162505345        1.9187332885        0.1621318529
       8
 i =       37, E =       -45.0881950070
  C         1.0239625489        2.7766025006        2.7899367191
  C         0.2774873749        0.1460314210        0.2783648176
  C         1.0279117957        1.1540281506        1.1527599634
  C         0.0204654983        1.9019203392        2.0377172286
  C         2.7814158785        2.7937722394        1.0400952612
  C         1.8976648482        0.1513963756        1.9113502331
  C         2.7681680066        0.8990326871        2.9217855582
  C         1.9124677360        1.9205799200        0.1594090546
       8
 i =       38, E =       -45.0883290941
  C         1.0214027141        2.7749329605        2.7876843132
  C         0.2817654424        0.1476361322        0.2829132613
  C         1.0277783692        1.1626667176        1.1593470219
  C         0.0104924890        1.9026887177        2.0392914709
  C         2.7764078054        2.7958809621        1.0391402299
  C         1.8929141075        0.1510541713        1.9098990211
  C         2.7640467746        0.8954484918        2.9247952824
  C         1.9094300725        1.9209549709        0.1575202497
       8
 i =       39, E =       -45.0884543942
  C         1.0206699048        2.7720944941        2.7823426619
  C         0.2860061205        0.1455993539        0.2851907492
  C         1.0249002824        1.1711514225        1.1628404278
  C        -0.0015875614        1.9060343002        2.0399390367
  C         2.7701178172        2.7955745551        1.0322490605
  C         1.8866012441        0.1488337540        1.9053571653
  C         2.7632519355        0.8869696495        2.9228955026
  C         1.9063979510        1.9156866671        0.1521209431
       8
 i =       40, E =       -45.0885003533
  C         1.0243713143        2.7695848120        2.7876434506
  C         0.2902493976        0.1463179889        0.2901729371
  C         1.0279199560        1.1756118657        1.1682516133
  C        -0.0024649992        1.9112935505        2.0432229510
  C         2.7708224098        2.7979073154        1.0329147319
  C         1.8842808467        0.1467990139        1.9099445162
  C         2.7695798574        0.8832080564        2.9219370343
  C         1.9118401390        1.9107820660        0.1545233623
       8
 i =       41, E =       -45.0885083352
  C         1.0243844998        2.7666722673        2.7818634783
  C         0.2874034090        0.1404109519        0.2843864014
  C         1.0252794028        1.1700579731        1.1609983899
  C        -0.0029680497        1.9087968941        2.0389683509
  C         2.7699481735        2.7925012376        1.0265644584
  C         1.8835868397        0.1429752535        1.9049899015
  C         2.7708018109        0.8786507538        2.9156169247
  C         1.9104421661        1.9050922050        0.1493065114
       8
 i =       42, E =       -45.0885176074
  C         1.0260787601        2.7677994499        2.7853163957
  C         0.2894508578        0.1421520754        0.2872124850
  C         1.0273206288        1.1707611307        1.1643846249
  C        -0.0007248555        1.9090993505        2.0423754244
  C         2.7727281911        2.7938614122        1.0302655687
  C         1.8861511185        0.1440818635        1.9079521557
  C         2.7715327974        0.8802114201        2.9196140028
  C         1.9125771617        1.9073221297        0.1529971174
       8
 i =       43, E =       -45.0885190966
  C         1.0266374066        2.7671759348        2.7856879613
  C         0.2901932981        0.1419943640        0.2874714073
  C         1.0282282062        1.1702642401        1.1648765969
  C        -0.0000999097        1.9085940636        2.0423609760
  C         2.7732694598        2.7934766143        1.0304408806
  C         1.8869182028        0.1435373862        1.9082884058
  C         2.7721254195        0.8799257424        2.9198543985
  C         1.9132865961        1.9068113034        0.1530343315
       8
 i =       44, E =       -45.0885190966
  C         1.0266374066        2.7671759348        2.7856879613
  C         0.2901932981        0.1419943640        0.2874714073
  C         1.0282282062        1.1702642401        1.1648765969
  C        -0.0000999097        1.9085940636        2.0423609760
  C         2.7732694598        2.7934766143        1.0304408806
  C         1.8869182028        0.1435373862        1.9082884058
  C         2.7721254195        0.8799257424        2.9198543985
  C         1.9132865961        1.9068113034        0.1530343315
