       8
 i =        1, E =       -45.1056583514
  C         0.8445627726        2.7337098861        2.7337130236
  C        -0.0242276280       -0.0242257570       -0.0242285400
  C         0.8982410726        0.8982385676        0.8982439537
  C        -0.0615218514        1.7983346309        1.7983287793
  C         2.7337082920        2.7337114639        0.8445603825
  C         1.7983349088       -0.0615203929        1.7983385966
  C         2.7337193889        0.8445706991        2.7337132288
  C         1.7983290312        1.7983267901       -0.0615234078
       8
 i =        2, E =       -45.1078032595
  C         0.8726038602        2.7356973188        2.7356975595
  C        -0.0570094937       -0.0570097975       -0.0570092860
  C         0.8784399354        0.8784401880        0.8784402757
  C        -0.0561299641        1.8033264423        1.8033262437
  C         2.7356965184        2.7356979490        0.8726034615
  C         1.8033261302       -0.0561301287        1.8033267275
  C         2.7356989615        0.8726048523        2.7356975113
  C         1.8033262853        1.8033251079       -0.0561301377
       8
 i =        3, E =       -45.1078809821
  C         0.8725087491        2.7331536293        2.7331537170
  C        -0.0577953770       -0.0577953403       -0.0577953886
  C         0.8750141058        0.8750140722        0.8750141941
  C        -0.0562029068        1.8029606972        1.8029607012
  C         2.7331533645        2.7331537939        0.8725087499
  C         1.8029605705       -0.0562030054        1.8029605134
  C         2.7331543661        0.8725088467        2.7331540473
  C         1.8029605642        1.8029604562       -0.0562029796
       8
 i =        4, E =       -45.1079141471
  C         0.8710235399        2.7305912390        2.7305911555
  C        -0.0597878512       -0.0597878350       -0.0597878574
  C         0.8706838593        0.8706837468        0.8706837541
  C        -0.0581551897        1.8012499814        1.8012502674
  C         2.7305913374        2.7305911855        0.8710236564
  C         1.8012500308       -0.0581553719        1.8012497976
  C         2.7305910417        0.8710233499        2.7305913374
  C         1.8012501292        1.8012503420       -0.0581551061
       8
 i =        5, E =       -45.1079461469
  C         0.8678057143        2.7267237599        2.7267236934
  C        -0.0629007994       -0.0629007038       -0.0629008247
  C         0.8654286446        0.8654284728        0.8654284704
  C        -0.0623572529        1.7976381218        1.7976384096
  C         2.7267241497        2.7267235606        0.8678058904
  C         1.7976382674       -0.0623573521        1.7976380738
  C         2.7267230316        0.8678053669        2.7267236400
  C         1.7976383879        1.7976387045       -0.0623571211
       8
 i =        6, E =       -45.1079865951
  C         0.8610169718        2.7196136802        2.7196136148
  C        -0.0690692242       -0.0690692709       -0.0690692574
  C         0.8571784383        0.8571783351        0.8571783326
  C        -0.0706998385        1.7902806703        1.7902807509
  C         2.7196141647        2.7196133382        0.8610170772
  C         1.7902808740       -0.0706997150        1.7902808402
  C         2.7196126427        0.8610165952        2.7196133054
  C         1.7902808655        1.7902811416       -0.0706997167
       8
 i =        7, E =       -45.1080100670
  C         0.8564068800        2.7155352148        2.7155352124
  C        -0.0730850102       -0.0730851089       -0.0730850176
  C         0.8536517054        0.8536517055        0.8536517136
  C        -0.0755962818        1.7856728309        1.7856727258
  C         2.7155355152        2.7155349449        0.8564068755
  C         1.7856729878       -0.0755960516        1.7856730792
  C         2.7155345406        0.8564066451        2.7155348817
  C         1.7856728712        1.7856729644       -0.0755962325
       8
 i =        8, E =       -45.1080255903
  C         0.8531792171        2.7130924869        2.7130925396
  C        -0.0762033852       -0.0762034855       -0.0762033739
  C         0.8525499935        0.8525500892        0.8525500749
  C        -0.0780575856        1.7827647644        1.7827646053
  C         2.7130925018        2.7130924191        0.8531791453
  C         1.7827648288       -0.0780574083        1.7827649557
  C         2.7130924336        0.8531791847        2.7130923694
  C         1.7827646872        1.7827646149       -0.0780576116
       8
 i =        9, E =       -45.1080286060
  C         0.8526166364        2.7127129642        2.7127130080
  C        -0.0770475696       -0.0770476137       -0.0770475542
  C         0.8526834403        0.8526835135        0.8526834909
  C        -0.0778618491        1.7824698292        1.7824697438
  C         2.7127129159        2.7127129768        0.8526165930
  C         1.7824698534       -0.0778617859        1.7824699158
  C         2.7127130665        0.8526166448        2.7127129513
  C         1.7824697689        1.7824697153       -0.0778618759
       8
 i =       10, E =       -45.1080286053
  C         0.8526166364        2.7127129642        2.7127130080
  C        -0.0770475696       -0.0770476137       -0.0770475542
  C         0.8526834403        0.8526835135        0.8526834909
  C        -0.0778618491        1.7824698292        1.7824697438
  C         2.7127129159        2.7127129768        0.8526165930
  C         1.7824698534       -0.0778617859        1.7824699158
  C         2.7127130665        0.8526166448        2.7127129513
  C         1.7824697689        1.7824697153       -0.0778618759
