       6
 i =        1, E =       -34.3716023673
  H         5.6866239686        7.4607542163        8.0737545956
  H         7.0604945867        7.4984216351        7.3508404539
  O         6.0938941720        7.5006915961        7.1956728454
  H         9.3201746206        8.2683100075        6.9760407932
  H         9.3022924323        6.7324378969        6.9279087960
  O         8.9828175266        7.4887589183        7.4470686566
       6
 i =        2, E =       -34.3719132023
  H         5.6928081489        7.4606742632        8.0780539985
  H         7.0796983954        7.4981503393        7.3613985516
  O         6.1063210028        7.5001201966        7.1978622737
  H         9.3172865282        8.2789635790        6.9792585859
  H         9.2992702267        6.7227722940        6.9309743342
  O         8.9586055229        7.4902395220        7.4328216405
       6
 i =        3, E =       -34.3721128235
  H         5.7018272782        7.4606281558        8.0817603287
  H         7.0943851582        7.4979074352        7.3700056201
  O         6.1183981238        7.5000493904        7.2024904983
  H         9.3124470570        8.2781791809        6.9795375950
  H         9.2946419934        6.7246367262        6.9316863430
  O         8.9337459936        7.4913828017        7.4226759688
       6
 i =        4, E =       -34.3624651301
  H         5.7895733717        7.4602272637        8.1167134773
  H         7.2237279042        7.4959979589        7.4430264757
  O         6.2274311796        7.4993403971        7.2445079048
  H         9.2537326035        8.2773138749        6.9863512991
  H         9.2375565734        6.7368715199        6.9427870940
  O         8.6837459936        7.5036653162        7.3146742927
       6
 i =        5, E =       -34.3723621711
  H         5.7155760062        7.4605358052        8.0878879565
  H         7.1101303307        7.4977229238        7.3792404704
  O         6.1325227874        7.5000812665        7.2102839306
  H         9.2986082025        8.2771499295        6.9780396138
  H         9.2810879824        6.7276639335        6.9307696959
  O         8.9124429920        7.4927800205        7.4113711631
       6
 i =        6, E =       -34.3724277764
  H         5.7240088679        7.4605140433        8.0912726017
  H         7.1188045189        7.4977727879        7.3825793161
  O         6.1414926750        7.4999916075        7.2143350399
  H         9.2904792930        8.2786822792        6.9766754178
  H         9.2726476063        6.7287209094        6.9305241985
  O         8.9012498908        7.4948039760        7.4058903598
       6
 i =        7, E =       -34.3724886671
  H         5.7349783269        7.4605856179        8.0937303194
  H         7.1274187532        7.4982497383        7.3829085960
  O         6.1526697220        7.4997809810        7.2175286336
  H         9.2815657462        8.2812545444        6.9752720642
  H         9.2629228889        6.7304284242        6.9311418988
  O         8.8975208661        7.4978152320        7.4069691906
       6
 i =        8, E =       -34.3725507230
  H         5.7669906218        7.4609339762        8.0981260078
  H         7.1514937127        7.5004757809        7.3836794139
  O         6.1823243527        7.4990669505        7.2218745305
  H         9.2580631235        8.2891284374        6.9709872032
  H         9.2381501771        6.7322681647        6.9307940708
  O         8.8936558789        7.5035823320        7.4115807591
       6
 i =        9, E =       -34.3725907680
  H         5.7609513691        7.4609756942        8.0958249470
  H         7.1445116783        7.5007532947        7.3809626609
  O         6.1732018084        7.4995884583        7.2177962062
  H         9.2633762476        8.2870398654        6.9705359448
  H         9.2443000327        6.7320614161        6.9292869400
  O         8.8988777500        7.5017538783        7.4137247512
       6
 i =       10, E =       -34.3726310819
  H         5.7674578875        7.4612104238        8.0955218465
  H         7.1505541797        7.5025460904        7.3766508258
  O         6.1772891124        7.4998398356        7.2160402378
  H         9.2580801885        8.2877983570        6.9660996300
  H         9.2402154645        6.7323458776        6.9248248512
  O         8.9025926990        7.5015085489        7.4163767924
       6
 i =       11, E =       -34.3726710148
  H         5.7886961607        7.4618398663        8.0964489334
  H         7.1679670516        7.5065171807        7.3703260561
  O         6.1907383288        7.5004583485        7.2129586039
  H         9.2424161417        8.2895481966        6.9522847351
  H         9.2278723161        6.7336344025        6.9108356771
  O         8.9069057053        7.5013741461        7.4178798316
       6
 i =       12, E =       -34.3726846837
  H         5.7850104950        7.4618006659        8.0977511007
  H         7.1654663750        7.5059078508        7.3704253858
  O         6.1874231505        7.5002538295        7.2145220112
  H         9.2449171388        8.2882106334        6.9502539465
  H         9.2308552267        6.7336218886        6.9078942152
  O         8.9070351651        7.5005147865        7.4145927062
       6
 i =       13, E =       -34.3726989750
  H         5.7856266257        7.4619094237        8.1014553181
  H         7.1640510384        7.5047160417        7.3716895796
  O         6.1856777950        7.5002329123        7.2173446777
  H         9.2452814442        8.2865763518        6.9424492248
  H         9.2323825168        6.7341702934        6.8985908160
  O         8.9073349938        7.4994730648        7.4074188870
       6
 i =       14, E =       -34.3727033903
  H         5.7891108517        7.4620604932        8.1027910357
  H         7.1654398798        7.5043633710        7.3712938226
  O         6.1875208551        7.5001222292        7.2178680529
  H         9.2424370122        8.2864235978        6.9386529023
  H         9.2298652357        6.7351602434        6.8947698731
  O         8.9080199998        7.4996927363        7.4071397752
       6
 i =       15, E =       -34.3727059662
  H         5.7917602508        7.4622365474        8.1040334464
  H         7.1657873910        7.5034899637        7.3713383111
  O         6.1884484716        7.5001063561        7.2181281715
  H         9.2392463331        8.2869459769        6.9356755898
  H         9.2267530062        6.7356360759        6.8918990685
  O         8.9084706652        7.5000464645        7.4068691038
       6
 i =       16, E =       -34.3727084535
  H         5.7931878632        7.4624545905        8.1053189439
  H         7.1659547621        7.5023518378        7.3709576875
  O         6.1887708118        7.4999804672        7.2186980353
  H         9.2350445274        8.2874666451        6.9327324778
  H         9.2227989485        6.7360713076        6.8889938157
  O         8.9085394285        7.5002785884        7.4067544832
       6
 i =       17, E =       -34.3727127888
  H         5.7943977236        7.4629370877        8.1069640875
  H         7.1652292808        7.5000173302        7.3706106355
  O         6.1881040116        7.4998472167        7.2192132682
  H         9.2260929197        8.2883367406        6.9276652824
  H         9.2147458301        6.7367082087        6.8838379128
  O         8.9081102625        7.5004867315        7.4066817362
       6
 i =       18, E =       -34.3727162682
  H         5.7931922765        7.4633992033        8.1072577479
  H         7.1642415893        7.4982949084        7.3704532103
  O         6.1868589605        7.4997464180        7.2194490678
  H         9.2177185834        8.2888208801        6.9239414100
  H         9.2078197425        6.7369933711        6.8797860389
  O         8.9072873180        7.5002984162        7.4066596865
       6
 i =       19, E =       -34.3727188084
  H         5.7904849077        7.4638107549        8.1058971802
  H         7.1630818610        7.4975705591        7.3711239554
  O         6.1855658178        7.4997737099        7.2188935474
  H         9.2108349904        8.2889018705        6.9214705503
  H         9.2028559216        6.7370231178        6.8768690607
  O         8.9065633628        7.4998166143        7.4066820466
       6
 i =       20, E =       -34.3727206565
  H         5.7871994325        7.4641578603        8.1038051899
  H         7.1624439047        7.4976999343        7.3724852949
  O         6.1850252981        7.4998558361        7.2182671721
  H         9.2054360773        8.2888369666        6.9192645842
  H         9.1995529490        6.7370602205        6.8743594280
  O         8.9062406444        7.4993487546        7.4065362808
       6
 i =       21, E =       -34.3727229529
  H         5.7821351985        7.4646386429        8.1003745404
  H         7.1615732400        7.4982572087        7.3757950485
  O         6.1848121285        7.4999749222        7.2172875821
  H         9.1983590808        8.2888906654        6.9159324470
  H         9.1954825860        6.7373538586        6.8710526465
  O         8.9060434627        7.4989975700        7.4063512973
       6
 i =       22, E =       -34.3727255426
  H         5.7753015012        7.4652538313        8.0961658419
  H         7.1607430304        7.4989396224        7.3814675709
  O         6.1851722092        7.5001499081        7.2165190558
  H         9.1894053386        8.2893160555        6.9110613150
  H         9.1902304240        6.7380475263        6.8668568598
  O         8.9059841910        7.4990216071        7.4060851508
       6
 i =       23, E =       -34.3727278033
  H         5.7682148191        7.4658419262        8.0923944072
  H         7.1598728065        7.4992319854        7.3888974894
  O         6.1858423903        7.5001817494        7.2163229452
  H         9.1809059923        8.2900934770        6.9062132807
  H         9.1849805480        6.7390248288        6.8634128694
  O         8.9059919897        7.4996027019        7.4060440896
       6
 i =       24, E =       -34.3727291218
  H         5.7640513530        7.4661311579        8.0909631040
  H         7.1594329197        7.4988295951        7.3945404154
  O         6.1863911455        7.5001905126        7.2170044581
  H         9.1767225265        8.2907285144        6.9036187082
  H         9.1821179695        6.7397065571        6.8621525800
  O         8.9061465997        7.5003112216        7.4062355889
       6
 i =       25, E =       -34.3727296823
  H         5.7630754046        7.4661652957        8.0914044273
  H         7.1593150955        7.4980078730        7.3970228869
  O         6.1864965504        7.5000325810        7.2178581293
  H         9.1761816163        8.2908964297        6.9031260174
  H         9.1814242713        6.7398457285        6.8622910961
  O         8.9063159956        7.5006125903        7.4065003132
       6
 i =       26, E =       -34.3727298405
  H         5.7632700122        7.4661341830        8.0920296947
  H         7.1593399948        7.4973242710        7.3973140225
  O         6.1863638666        7.5000572312        7.2182545692
  H         9.1765559198        8.2907458749        6.9033831796
  H         9.1814240874        6.7396469866        6.8625685797
  O         8.9063465776        7.5004939624        7.4066677351
       6
 i =       27, E =       -34.3727298404
  H         5.7632700122        7.4661341830        8.0920296947
  H         7.1593399948        7.4973242710        7.3973140225
  O         6.1863638666        7.5000572312        7.2182545692
  H         9.1765559198        8.2907458749        6.9033831796
  H         9.1814240874        6.7396469866        6.8625685797
  O         8.9063465776        7.5004939624        7.4066677351
