       8
 i =        1, E =       -44.9245712518
  C         0.7545411618        2.7837273813        2.7836974036
  C        -0.0293380504       -0.0293806203       -0.0293117595
  C         0.9068355754        0.9068630215        0.9068159449
  C        -0.1168561357        1.8018382488        1.8018364748
  C         2.7836667611        2.7837015956        0.7545669974
  C         1.8018206800       -0.1168135628        1.8018393540
  C         2.7837602463        0.7545107928        2.7837269147
  C         1.8018477141        1.8018309707       -0.1168932763
       8
 i =        2, E =       -44.9432814995
  C         0.8526661132        2.8082864175        2.8082861540
  C        -0.1513589244       -0.1513647797       -0.1513521363
  C         0.8347775399        0.8347781038        0.8347770802
  C        -0.0969237837        1.8178528292        1.8178691881
  C         2.8082790958        2.8082815747        0.8526683859
  C         1.8178561586       -0.0969200861        1.8178648822
  C         2.8082953377        0.8526623544        2.8082903487
  C         1.8178643157        1.8178550232       -0.0969270951
       8
 i =        3, E =       -44.9488826769
  C         0.8711024604        2.7832099880        2.7832160664
  C        -0.1165171384       -0.1165178048       -0.1165186648
  C         0.8601290986        0.8601251902        0.8601321724
  C        -0.0972391745        1.8217988404        1.8218069778
  C         2.7832133495        2.7832105027        0.8711031873
  C         1.8218018060       -0.0972427426        1.8218040769
  C         2.7832129314        0.8711028728        2.7832157273
  C         1.8218038823        1.8218014358       -0.0972356105
       8
 i =        4, E =       -44.9500220183
  C         0.8645754271        2.7951610924        2.7951656161
  C        -0.0979211330       -0.0979211231       -0.0979194619
  C         0.8729672981        0.8729630740        0.8729703637
  C        -0.0947311409        1.8317035621        1.8317066907
  C         2.7951647751        2.7951617536        0.8645750101
  C         1.8317053607       -0.0947356216        1.8317051986
  C         2.7951621976        0.8645759284        2.7951645328
  C         1.8317052310        1.8317045207       -0.0947271330
       8
 i =        5, E =       -44.9506150484
  C         0.8764581607        2.8131280345        2.8131277948
  C        -0.0807046361       -0.0807076968       -0.0807038906
  C         0.8858908041        0.8858911553        0.8858903015
  C        -0.0835814069        1.8486574414        1.8486570338
  C         2.8131261730        2.8131275413        0.8764609218
  C         1.8486557622       -0.0835804730        1.8486571190
  C         2.8131297040        0.8764554185        2.8131293498
  C         1.8486586846        1.8486577533       -0.0835819912
       8
 i =        6, E =       -44.9506913138
  C         0.8829666023        2.8146335874        2.8146340156
  C        -0.0813450558       -0.0813432860       -0.0813439548
  C         0.8850613983        0.8850599341        0.8850625561
  C        -0.0804392703        1.8500072603        1.8500078621
  C         2.8146348081        2.8146333087        0.8829648936
  C         1.8500082865       -0.0804408372        1.8500076035
  C         2.8146327980        0.8829679787        2.8146332585
  C         1.8500069428        1.8500068377       -0.0804383471
       8
 i =        7, E =       -44.9506976327
  C         0.8846569271        2.8146170887        2.8146166538
  C        -0.0805981594       -0.0806010335       -0.0805990680
  C         0.8851755779        0.8851767384        0.8851745729
  C        -0.0799106149        1.8498751823        1.8498749948
  C         2.8146155847        2.8146172125        0.8846591589
  C         1.8498738035       -0.0799089445        1.8498751845
  C         2.8146183896        0.8846550710        2.8146181698
  C         1.8498762850        1.8498759214       -0.0799114611
       8
 i =        8, E =       -44.9506982497
  C         0.8846760901        2.8146336779        2.8146341560
  C        -0.0805719339       -0.0805691505       -0.0805709552
  C         0.8848966502        0.8848953925        0.8848977844
  C        -0.0800520837        1.8496864507        1.8496868813
  C         2.8146349663        2.8146332846        0.8846740317
  C         1.8496876240       -0.0800537391        1.8496864673
  C         2.8146325892        0.8846777848        2.8146327858
  C         1.8496857258        1.8496857269       -0.0800513790
       8
 i =        9, E =       -44.9506982498
  C         0.8846760901        2.8146336779        2.8146341560
  C        -0.0805719339       -0.0805691505       -0.0805709552
  C         0.8848966502        0.8848953925        0.8848977844
  C        -0.0800520837        1.8496864507        1.8496868813
  C         2.8146349663        2.8146332846        0.8846740317
  C         1.8496876240       -0.0800537391        1.8496864673
  C         2.8146325892        0.8846777848        2.8146327858
  C         1.8496857258        1.8496857269       -0.0800513790
