       8
 i =        1, E =       -44.8878810533
  C         0.7288109127        2.8054707571        2.8053642149
  C        -0.0186069273       -0.0187524051       -0.0186145158
  C         0.9172541246        0.9173621898        0.9172594504
  C        -0.1224906412        1.8105553952        1.8105846044
  C         2.8053688213        2.8054805503        0.7288041839
  C         1.8105504763       -0.1223044778        1.8105488843
  C         2.8055608672        0.7286691163        2.8055666362
  C         1.8105842401        1.8105539421       -0.1224814287
       8
 i =        2, E =       -44.9169153774
  C         0.8373831319        2.8507950259        2.8507403217
  C        -0.1641441331       -0.1642029258       -0.1641469917
  C         0.8357956611        0.8358161092        0.8357967141
  C        -0.1068264596        1.8332566996        1.8332837244
  C         2.8507419194        2.8507990755        0.8373830792
  C         1.8332749174       -0.1067691782        1.8332734810
  C         2.8508219722        0.8373808610        2.8508247761
  C         1.8332846166        1.8332563217       -0.1068235302
       8
 i =        3, E =       -44.9270504506
  C         0.8819911626        2.8061288973        2.8061430229
  C        -0.1247944907       -0.1247408040       -0.1247920355
  C         0.8655083552        0.8654944941        0.8655075972
  C        -0.1069395519        1.8361572505        1.8361716387
  C         2.8061432471        2.8061284064        0.8819920903
  C         1.8361574346       -0.1069612745        1.8361568695
  C         2.8061333346        0.8820062951        2.8061325999
  C         1.8361717536        1.8361566382       -0.1069405878
       8
 i =        4, E =       -44.9290635927
  C         0.8682957002        2.8230910959        2.8230912821
  C        -0.1098062807       -0.1098128997       -0.1098065167
  C         0.8749741556        0.8749656148        0.8749737618
  C        -0.1030532466        1.8460586339        1.8460547145
  C         2.8230912026        2.8230909472        0.8682963418
  C         1.8460492360       -0.1030708138        1.8460494098
  C         2.8230892296        0.8683103124        2.8230891749
  C         1.8460542708        1.8460583120       -0.1030540709
       8
 i =        5, E =       -44.9302045176
  C         0.8791481080        2.8474846354        2.8474809754
  C        -0.0873561033       -0.0873573721       -0.0873561596
  C         0.8930714422        0.8930751987        0.8930716480
  C        -0.0886095573        1.8682907483        1.8682896048
  C         2.8474813380        2.8474852487        0.8791473301
  C         1.8682823726       -0.0886036222        1.8682823677
  C         2.8474923702        0.8791343733        2.8474926433
  C         1.8682892099        1.8682903976       -0.0886092496
       8
 i =        6, E =       -44.9304641178
  C         0.8915262920        2.8514462818        2.8514399739
  C        -0.0834786981       -0.0835050915       -0.0834799096
  C         0.8961436234        0.8961402611        0.8961434705
  C        -0.0821840512        1.8738031973        1.8737992214
  C         2.8514396928        2.8514463691        0.8915268546
  C         1.8738020500       -0.0821879895        1.8738022337
  C         2.8514406289        0.8915406650        2.8514409841
  C         1.8737991672        1.8738033383       -0.0821842485
       8
 i =        7, E =       -44.9304996768
  C         0.8959339398        2.8507529789        2.8507617248
  C        -0.0819600943       -0.0819179778       -0.0819581707
  C         0.8967820164        0.8967865435        0.8967822074
  C        -0.0809354099        1.8738026938        1.8738110535
  C         2.8507623046        2.8507531176        0.8959327582
  C         1.8737991522       -0.0809288340        1.8737987518
  C         2.8507655810        0.8959068940        2.8507651508
  C         1.8738109102        1.8738021742       -0.0809351353
       8
 i =        8, E =       -44.9305010802
  C         0.8960468562        2.8510501902        2.8510386305
  C        -0.0817728377       -0.0818213400       -0.0817750480
  C         0.8965647416        0.8965575833        0.8965644467
  C        -0.0809521707        1.8737381005        1.8737286061
  C         2.8510381104        2.8510502353        0.8960482297
  C         1.8737413112       -0.0809585267        1.8737417635
  C         2.8510386349        0.8960780827        2.8510391812
  C         1.8737287469        1.8737386756       -0.0809524454
       8
 i =        9, E =       -44.9305010798
  C         0.8960468562        2.8510501902        2.8510386305
  C        -0.0817728377       -0.0818213400       -0.0817750480
  C         0.8965647416        0.8965575833        0.8965644467
  C        -0.0809521707        1.8737381005        1.8737286061
  C         2.8510381104        2.8510502353        0.8960482297
  C         1.8737413112       -0.0809585267        1.8737417635
  C         2.8510386349        0.8960780827        2.8510391812
  C         1.8737287469        1.8737386756       -0.0809524454
