       3
 i =        1, E =       -17.2210830910
  H         7.6534026015        8.2547417027        7.2823503471
  H         7.6304965739        6.7450512381        7.2349647515
  O         7.3287558779        7.4882925130        7.7783028477
       3
 i =        2, E =       -17.2211025643
  H         7.6519009632        8.2624190106        7.2851476938
  H         7.6270833661        6.7428936928        7.2413847096
  O         7.2993732260        7.4940868753        7.7727656682
       3
 i =        3, E =       -17.2212670506
  H         7.6496636709        8.2712107712        7.2882456959
  H         7.6236340679        6.7365092505        7.2457105437
  O         7.3171428597        7.4958785587        7.7737216262
       3
 i =        4, E =       -17.2213021637
  H         7.6476403002        8.2699200557        7.2908867583
  H         7.6202313966        6.7417263237        7.2513690384
  O         7.3156765692        7.4988772653        7.7817101920
       3
 i =        5, E =       -17.2213128620
  H         7.6460076642        8.2716900083        7.2929255862
  H         7.6177075742        6.7423312625        7.2552754965
  O         7.3112716464        7.5006730806        7.7813667741
       3
 i =        6, E =       -17.2213153830
  H         7.6452727682        8.2724928321        7.2939350235
  H         7.6171208690        6.7413273666        7.2563339589
  O         7.3123158047        7.5003136719        7.7814710090
       3
 i =        7, E =       -17.2213155117
  H         7.6448165761        8.2724533770        7.2944290549
  H         7.6169732619        6.7410573513        7.2568373839
  O         7.3122239032        7.5000514531        7.7817305698
       3
 i =        8, E =       -17.2213155117
  H         7.6448165761        8.2724533770        7.2944290549
  H         7.6169732619        6.7410573513        7.2568373839
  O         7.3122239032        7.5000514531        7.7817305698
