       3
 i =        1, E =       -17.1787417770
  H         7.6527285377        8.2647570128        7.2840614877
  H         7.6290323854        6.7361375614        7.2368063110
  O         7.3391000277        7.4893226897        7.7737794832
       3
 i =        2, E =       -17.1788127926
  H         7.6515511053        8.2713322470        7.2863687684
  H         7.6272904930        6.7309483842        7.2399742942
  O         7.3290162883        7.4908759667        7.7719086688
       3
 i =        3, E =       -17.1788383565
  H         7.6497600832        8.2725717956        7.2890426245
  H         7.6247947685        6.7320110807        7.2445130663
  O         7.3166454836        7.4931574443        7.7715150301
       3
 i =        4, E =       -17.1788586869
  H         7.6472602713        8.2736862638        7.2922683806
  H         7.6213570895        6.7337775887        7.2499540363
  O         7.3126164480        7.4956506639        7.7734391645
       3
 i =        5, E =       -17.1788777993
  H         7.6424847295        8.2761266884        7.2985099133
  H         7.6146702915        6.7371088397        7.2606518211
  O         7.3115627089        7.5002353588        7.7808598919
       3
 i =        6, E =       -17.1788797069
  H         7.6425162789        8.2767780529        7.2985752695
  H         7.6147352049        6.7363423900        7.2607734696
  O         7.3119162349        7.5000432536        7.7813136575
       3
 i =        7, E =       -17.1788797069
  H         7.6425162789        8.2767780529        7.2985752695
  H         7.6147352049        6.7363423900        7.2607734696
  O         7.3119162349        7.5000432536        7.7813136575
