       8
 i =        1, E =       -45.1097808521
  C         0.8543956238        2.7260154049        2.7260168997
  C        -0.0230087905       -0.0230386465       -0.0230247233
  C         0.8964329455        0.8964472924        0.8964333866
  C        -0.0530119206        1.7970228457        1.7970211677
  C         2.7260192063        2.7260412637        0.8543971909
  C         1.7970164891       -0.0529833980        1.7970290358
  C         2.7260369693        0.8543835077        2.7260397581
  C         1.7970332684        1.7970254861       -0.0529988764
       8
 i =        2, E =       -45.1110176737
  C         0.8732690755        2.7276102552        2.7276107104
  C        -0.0464990632       -0.0465051856       -0.0465011712
  C         0.8823235975        0.8823278799        0.8823248229
  C        -0.0502444779        1.8010870275        1.8010863465
  C         2.7276108724        2.7276162936        0.8732688389
  C         1.8010858430       -0.0502364002        1.8010868428
  C         2.7276162263        0.8732662597        2.7276163462
  C         1.8010897677        1.8010859889       -0.0502407324
       8
 i =        3, E =       -45.1110677092
  C         0.8749671589        2.7260112545        2.7260112779
  C        -0.0492313301       -0.0492328683       -0.0492320051
  C         0.8779437315        0.8779442653        0.8779439289
  C        -0.0492685294        1.8009693598        1.8009693861
  C         2.7260115838        2.7260129165        0.8749671939
  C         1.8009691654       -0.0492665925        1.8009695006
  C         2.7260129506        0.8749671106        2.7260131129
  C         1.8009698559        1.8009694071       -0.0492676591
       8
 i =        4, E =       -45.1110886738
  C         0.8747863309        2.7240815318        2.7240813822
  C        -0.0516991600       -0.0516977792       -0.0516986081
  C         0.8736302104        0.8736290638        0.8736299722
  C        -0.0498732665        1.7995243794        1.7995246245
  C         2.7240813712        2.7240803551        0.8747864607
  C         1.7995245733       -0.0498749243        1.7995242039
  C         2.7240804026        0.8747872976        2.7240804098
  C         1.7995237741        1.7995245642       -0.0498740703
       8
 i =        5, E =       -45.1111095134
  C         0.8728253834        2.7211806036        2.7211803871
  C        -0.0545520770       -0.0545493150       -0.0545509506
  C         0.8691811028        0.8691793344        0.8691806464
  C        -0.0524202808        1.7967132198        1.7967134624
  C         2.7211801256        2.7211779581        0.8728255142
  C         1.7967135484       -0.0524237219        1.7967129405
  C         2.7211779610        0.8728265698        2.7211778662
  C         1.7967120779        1.7967134166       -0.0524219051
       8
 i =        6, E =       -45.1111615556
  C         0.8631086127        2.7096225240        2.7096222305
  C        -0.0653715369       -0.0653664256       -0.0653694871
  C         0.8542976257        0.8542951615        0.8542968313
  C        -0.0641107888        1.7850925861        1.7850926344
  C         2.7096214678        2.7096172014        0.8631086788
  C         1.7850932556       -0.0641172796        1.7850923524
  C         2.7096170662        0.8631097995        2.7096167845
  C         1.7850905572        1.7850927999       -0.0641137277
       8
 i =        7, E =       -45.1111975868
  C         0.8579373416        2.7052942918        2.7052940601
  C        -0.0689910197       -0.0689873860       -0.0689896237
  C         0.8509301007        0.8509285561        0.8509294971
  C        -0.0694617019        1.7805031370        1.7805029857
  C         2.7052934717        2.7052903228        0.8579373820
  C         1.7805037625       -0.0694663945        1.7805032588
  C         2.7052901397        0.8579379193        2.7052899664
  C         1.7805016682        1.7805033828       -0.0694637565
       8
 i =        8, E =       -45.1112506379
  C         0.8478652350        2.6985324720        2.6985325560
  C        -0.0749626251       -0.0749642895       -0.0749633902
  C         0.8489723793        0.8489738189        0.8489726320
  C        -0.0784189213        1.7731354079        1.7731349883
  C         2.6985327515        2.6985338729        0.8478651326
  C         1.7731355432       -0.0784167390        1.7731361275
  C         2.6985338196        0.8478641636        2.6985339152
  C         1.7731360286        1.7731355141       -0.0784177781
       8
 i =        9, E =       -45.1112547679
  C         0.8480449829        2.6983447864        2.6983448413
  C        -0.0759133949       -0.0759142761       -0.0759138154
  C         0.8485238975        0.8485246924        0.8485240657
  C        -0.0777328166        1.7731351441        1.7731349412
  C         2.6983449440        2.6983455132        0.8480449158
  C         1.7731352661       -0.0777316764        1.7731355348
  C         2.6983454705        0.8480444297        2.6983455293
  C         1.7731354672        1.7731352113       -0.0777322225
       8
 i =       10, E =       -45.1112565782
  C         0.8478934834        2.6979024351        2.6979024537
  C        -0.0770814295       -0.0770814820       -0.0770814449
  C         0.8479249849        0.8479250390        0.8479250125
  C        -0.0771083064        1.7729073621        1.7729073608
  C         2.6979024549        2.6979024931        0.8478934547
  C         1.7729073600       -0.0771082434        1.7729073558
  C         2.6979024848        0.8478934309        2.6979024710
  C         1.7729073628        1.7729073637       -0.0771082929
       8
 i =       11, E =       -45.1112565780
  C         0.8478934834        2.6979024351        2.6979024537
  C        -0.0770814295       -0.0770814820       -0.0770814449
  C         0.8479249849        0.8479250390        0.8479250125
  C        -0.0771083064        1.7729073621        1.7729073608
  C         2.6979024549        2.6979024931        0.8478934547
  C         1.7729073600       -0.0771082434        1.7729073558
  C         2.6979024848        0.8478934309        2.6979024710
  C         1.7729073628        1.7729073637       -0.0771082929
