       8
 i =        1, E =       -44.9707989718
  C         0.8858078922        2.6991968240        2.6991938536
  C        -0.0103954495       -0.0104041365       -0.0103964647
  C         0.8946160140        0.8946252725        0.8946228649
  C        -0.0173110432        1.7940180929        1.7940160137
  C         2.6991916549        2.6991944191        0.8858007318
  C         1.7940134075       -0.0173040335        1.7940095039
  C         2.6991992587        0.8857983721        2.6991975596
  C         1.7940126212        1.7940092643       -0.0173097225
       8
 i =        2, E =       -44.9710050190
  C         0.8929546389        2.7046969481        2.7046964066
  C        -0.0098358633       -0.0098354977       -0.0098352949
  C         0.8959630587        0.8959634330        0.8959637706
  C        -0.0119006895        1.7994378683        1.7994374990
  C         2.7046954336        2.7046951102        0.8929532359
  C         1.7994375313       -0.0119008058        1.7994366767
  C         2.7046967869        0.8929540709        2.7046957872
  C         1.7994364470        1.7994358430       -0.0119018238
       8
 i =        3, E =       -44.9707800180
  C         0.9231015979        2.7284068171        2.7284115248
  C         0.0019954860        0.0020104674        0.0019972195
  C         0.9082753168        0.9082589546        0.9082631863
  C         0.0144498968        1.8232700457        1.8232733000
  C         2.7284152085        2.7284102955        0.9231136676
  C         1.8232781982        0.0144373288        1.8232845607
  C         2.7284025146        0.9231182152        2.7284049810
  C         1.8232791200        1.8232849971        0.0144468819
       8
 i =        4, E =       -44.9712349502
  C         0.9059997936        2.7152752906        2.7152762114
  C        -0.0019789770       -0.0019759202       -0.0019785056
  C         0.9033918233        0.9033883405        0.9033891915
  C         0.0001038872        1.8102451320        1.8102459898
  C         2.7152769859        2.7152759241        0.9060023393
  C         1.8102468759        0.0001012991        1.8102484037
  C         2.7152744670        0.9060032810        2.7152749069
  C         1.8102470144        1.8102482885        0.0001031732
       8
 i =        5, E =       -44.9712435327
  C         0.9041011491        2.7143899164        2.7143898773
  C        -0.0007701059       -0.0007692262       -0.0007697839
  C         0.9043034910        0.9043029686        0.9043033418
  C        -0.0011926363        1.8093756399        1.8093755665
  C         2.7143895909        2.7143893103        0.9041010068
  C         1.8093758058       -0.0011931334        1.8093756516
  C         2.7143896139        0.9041015278        2.7143892979
  C         1.8093753712        1.8093752984       -0.0011931836
       8
 i =        6, E =       -44.9712458347
  C         0.9050913252        2.7151769767        2.7151768596
  C         0.0003406074        0.0003404749        0.0003405587
  C         0.9052668226        0.9052670306        0.9052669670
  C         0.0000023634        1.8101799673        1.8101798892
  C         2.7151767623        2.7151768445        0.9050910620
  C         1.8101798433        0.0000025567        1.8101796871
  C         2.7151770071        0.9050910701        2.7151769197
  C         1.8101797738        1.8101796441        0.0000023153
       8
 i =        7, E =       -44.9712459876
  C         0.9050471428        2.7149827358        2.7149827322
  C        -0.0000120227       -0.0000120406       -0.0000120591
  C         0.9049444254        0.9049444032        0.9049443675
  C         0.0000068643        1.8099856614        1.8099856617
  C         2.7149827703        2.7149827851        0.9050471824
  C         1.8099856687        0.0000068643        1.8099856841
  C         2.7149827448        0.9050471764        2.7149827635
  C         1.8099856994        1.8099857241        0.0000068756
       8
 i =        8, E =       -44.9712459871
  C         0.9050471428        2.7149827358        2.7149827322
  C        -0.0000120227       -0.0000120406       -0.0000120591
  C         0.9049444254        0.9049444032        0.9049443675
  C         0.0000068643        1.8099856614        1.8099856617
  C         2.7149827703        2.7149827851        0.9050471824
  C         1.8099856687        0.0000068643        1.8099856841
  C         2.7149827448        0.9050471764        2.7149827635
  C         1.8099856994        1.8099857241        0.0000068756
