       8
 i =        1, E =       -44.9424933163
  C         0.7754638729        2.7739679470        2.7739508331
  C        -0.0312907021       -0.0312997048       -0.0312514078
  C         0.9035674069        0.9035710056        0.9035365491
  C        -0.1067905146        1.8015780104        1.8015741713
  C         2.7739076941        2.7739206768        0.7755095679
  C         1.8015615225       -0.1067930278        1.8015882542
  C         2.7739819206        0.7754686866        2.7739351227
  C         1.8015862458        1.8015735794       -0.1068550170
       8
 i =        2, E =       -44.9562448396
  C         0.8651772454        2.7905650375        2.7905698802
  C        -0.1339156046       -0.1339123749       -0.1339087828
  C         0.8418388120        0.8418396308        0.8418411775
  C        -0.0844649098        1.8161301347        1.8161477106
  C         2.7905677395        2.7905657719        0.8651839059
  C         1.8161322040       -0.0844648213        1.8161456431
  C         2.7905661789        0.8651777438        2.7905707971
  C         1.8161388065        1.8161411650       -0.0844610557
       8
 i =        3, E =       -44.9598870626
  C         0.8687292105        2.7739720962        2.7739763657
  C        -0.1020347246       -0.1020356174       -0.1020312364
  C         0.8651042096        0.8651050470        0.8651108114
  C        -0.0884564341        1.8187191568        1.8187232281
  C         2.7739707134        2.7739720673        0.8687320245
  C         1.8187188036       -0.0884562778        1.8187233288
  C         2.7739729147        0.8687299350        2.7739762475
  C         1.8187188987        1.8187193263       -0.0884519026
       8
 i =        4, E =       -44.9603759579
  C         0.8652079976        2.7826189469        2.7826224376
  C        -0.0883673299       -0.0883659412       -0.0883655224
  C         0.8738625353        0.8738626382        0.8738670919
  C        -0.0870769104        1.8260244886        1.8260280107
  C         2.7826211338        2.7826206092        0.8652086277
  C         1.8260253344       -0.0870769799        1.8260267832
  C         2.7826183433        0.8652078061        2.7826229520
  C         1.8260252199        1.8260260972       -0.0870713994
       8
 i =        5, E =       -44.9605760043
  C         0.8734209679        2.7909791446        2.7909790234
  C        -0.0817531440       -0.0817542108       -0.0817506474
  C         0.8777807698        0.8777807200        0.8777806795
  C        -0.0814164703        1.8339863892        1.8339852536
  C         2.7909760914        2.7909774247        0.8734235836
  C         1.8339853189       -0.0814164219        1.8339864701
  C         2.7909796716        0.8734212125        2.7909785684
  C         1.8339862891        1.8339856403       -0.0814177704
       8
 i =        6, E =       -44.9605963255
  C         0.8775366875        2.7928935203        2.7928943679
  C        -0.0799995388       -0.0799978476       -0.0800016627
  C         0.8783914991        0.8783914634        0.8783926137
  C        -0.0792822554        1.8357035865        1.8357058613
  C         2.7928965890        2.7928949681        0.8775343510
  C         1.8357046182       -0.0792824870        1.8357042777
  C         2.7928924824        0.8775363197        2.7928947032
  C         1.8357042382        1.8357048491       -0.0792800568
       8
 i =        7, E =       -44.9605974910
  C         0.8778359751        2.7928821076        2.7928809869
  C        -0.0798518841       -0.0798535998       -0.0798494968
  C         0.8781533609        0.8781533100        0.8781522945
  C        -0.0793324646        1.8354808098        1.8354785734
  C         2.7928789682        2.7928805147        0.8778379856
  C         1.8354798191       -0.0793320850        1.8354802261
  C         2.7928830859        0.8778363115        2.7928809367
  C         1.8354802892        1.8354797902       -0.0793345358
       8
 i =        8, E =       -44.9605974906
  C         0.8778359751        2.7928821076        2.7928809869
  C        -0.0798518841       -0.0798535998       -0.0798494968
  C         0.8781533609        0.8781533100        0.8781522945
  C        -0.0793324646        1.8354808098        1.8354785734
  C         2.7928789682        2.7928805147        0.8778379856
  C         1.8354798191       -0.0793320850        1.8354802261
  C         2.7928830859        0.8778363115        2.7928809367
  C         1.8354802892        1.8354797902       -0.0793345358
