       8
 i =        1, E =       -44.9596356736
  C         0.8940176722        2.6841493153        2.6841482372
  C        -0.0008928219       -0.0009009129       -0.0008936961
  C         0.8942004498        0.8942073687        0.8942084116
  C        -0.0010530922        1.7890698159        1.7890630422
  C         2.6841432797        2.6841489517        0.8940104847
  C         1.7890649303       -0.0010457001        1.7890635905
  C         2.6841565521        0.8940122502        2.6841509294
  C         1.7890616060        1.7890571466       -0.0010524511
       8
 i =        2, E =       -44.9596381300
  C         0.8947438479        2.6847936393        2.6847937142
  C        -0.0002898286       -0.0002892556       -0.0002896771
  C         0.8947415442        0.8947410761        0.8947410626
  C        -0.0002704280        1.7897719743        1.7897723614
  C         2.6847939493        2.6847935580        0.8947442396
  C         1.7897724307       -0.0002709368        1.7897724017
  C         2.6847932360        0.8947442312        2.6847935081
  C         1.7897723102        1.7897726594       -0.0002706359
       8
 i =        3, E =       -44.9596381294
  C         0.8947438479        2.6847936393        2.6847937142
  C        -0.0002898286       -0.0002892556       -0.0002896771
  C         0.8947415442        0.8947410761        0.8947410626
  C        -0.0002704280        1.7897719743        1.7897723614
  C         2.6847939493        2.6847935580        0.8947442396
  C         1.7897724307       -0.0002709368        1.7897724017
  C         2.6847932360        0.8947442312        2.6847935081
  C         1.7897723102        1.7897726594       -0.0002706359
