       8
 i =        1, E =       -44.9308584674
  C         0.7609880706        2.7799993094        2.7800350331
  C        -0.0303337692       -0.0303504873       -0.0303455855
  C         0.9054971086        0.9055015708        0.9055049212
  C        -0.1141653444        1.8013184341        1.8012880848
  C         2.7800149998        2.7800323917        0.7609820722
  C         1.8012867967       -0.1141812145        1.8013099107
  C         2.7800157201        0.7610027972        2.7799962923
  C         1.8013107309        1.8012906754       -0.1141567307
       8
 i =        2, E =       -44.9478658276
  C         0.8562480390        2.8016618490        2.8016671836
  C        -0.1463342985       -0.1463256438       -0.1463346647
  C         0.8364932394        0.8364945495        0.8364933525
  C        -0.0934227551        1.8166643403        1.8166597743
  C         2.8016672634        2.8016660904        0.8562469554
  C         1.8166623086       -0.0934235814        1.8166600458
  C         2.8016677452        0.8562473772        2.8016650046
  C         1.8166604892        1.8166635336       -0.0934224691
       8
 i =        3, E =       -44.9527504986
  C         0.8699817716        2.7797341885        2.7797321395
  C        -0.1126228773       -0.1126268878       -0.1126236611
  C         0.8610627279        0.8610647338        0.8610619032
  C        -0.0945268854        1.8203773281        1.8203760768
  C         2.7797325016        2.7797349804        0.8699820611
  C         1.8203774128       -0.0945266390        1.8203754689
  C         2.7797338660        0.8699844690        2.7797329174
  C         1.8203752992        1.8203781501       -0.0945280658
       8
 i =        4, E =       -44.9536860557
  C         0.8645750538        2.7907420247        2.7907402219
  C        -0.0944421243       -0.0944377856       -0.0944416910
  C         0.8735434676        0.8735441737        0.8735427755
  C        -0.0923080478        1.8297978011        1.8297992220
  C         2.7907416145        2.7907410308        0.8645746678
  C         1.8297991726       -0.0923070203        1.8297968829
  C         2.7907415995        0.8645737818        2.7907417010
  C         1.8297976735        1.8297988599       -0.0923090472
       8
 i =        5, E =       -44.9541386836
  C         0.8755645475        2.8053925074        2.8053925558
  C        -0.0813616094       -0.0813653364       -0.0813629415
  C         0.8829761072        0.8829756405        0.8829760349
  C        -0.0829481788        1.8435337040        1.8435312235
  C         2.8053916727        2.8053944501        0.8755642637
  C         1.8435321332       -0.0829484173        1.8435338949
  C         2.8053924153        0.8755665050        2.8053917756
  C         1.8435328985        1.8435320509       -0.0829478400
       8
 i =        6, E =       -44.9541877709
  C         0.8814394948        2.8074412885        2.8074414238
  C        -0.0807858157       -0.0807799825       -0.0807846664
  C         0.8829565021        0.8829568640        0.8829562315
  C        -0.0799021959        1.8453309737        1.8453334617
  C         2.8074427709        2.8074396136        0.8814394544
  C         1.8453318422       -0.0799021319        1.8453302910
  C         2.8074405246        0.8814369687        2.8074413840
  C         1.8453322308        1.8453320348       -0.0799025145
       8
 i =        7, E =       -44.9541909614
  C         0.8823707685        2.8073963452        2.8073956469
  C        -0.0803740776       -0.0803808894       -0.0803754523
  C         0.8828314561        0.8828307170        0.8828315594
  C        -0.0796981795        1.8450818283        1.8450784598
  C         2.8073945026        2.8073981633        0.8823708495
  C         1.8450807811       -0.0796976903        1.8450826250
  C         2.8073972687        0.8823735528        2.8073965473
  C         1.8450799423        1.8450804975       -0.0796978667
       8
 i =        8, E =       -44.9541909611
  C         0.8823707685        2.8073963452        2.8073956469
  C        -0.0803740776       -0.0803808894       -0.0803754523
  C         0.8828314561        0.8828307170        0.8828315594
  C        -0.0796981795        1.8450818283        1.8450784598
  C         2.8073945026        2.8073981633        0.8823708495
  C         1.8450807811       -0.0796976903        1.8450826250
  C         2.8073972687        0.8823735528        2.8073965473
  C         1.8450799423        1.8450804975       -0.0796978667
