       8
 i =        1, E =       -45.1102233958
  C         0.8925702840        2.6875314083        2.6875297470
  C        -0.0039163521       -0.0039211494       -0.0039155130
  C         0.8935970353        0.8936012166        0.8936024986
  C        -0.0047550161        1.7899882793        1.7899832974
  C         2.6875259871        2.6875291280        0.8925657159
  C         1.7899852635       -0.0047508931        1.7899835922
  C         2.6875357236        0.8925673839        2.6875311946
  C         1.7899818158        1.7899793011       -0.0047558041
       8
 i =        2, E =       -45.1102409471
  C         0.8939612065        2.6893789053        2.6893778266
  C        -0.0030363581       -0.0030385183       -0.0030358634
  C         0.8945720222        0.8945737021        0.8945745709
  C        -0.0035399043        1.7918084767        1.7918060685
  C         2.6893756009        2.6893774673        0.8939585429
  C         1.7918071711       -0.0035376892        1.7918062709
  C         2.6893808054        0.8939595219        2.6893786086
  C         1.7918050901        1.7918037270       -0.0035405089
       8
 i =        3, E =       -45.1102548666
  C         0.8972406494        2.6925550200        2.6925551572
  C        -0.0005485528       -0.0005471102       -0.0005486240
  C         0.8970343160        0.8970328968        0.8970327870
  C        -0.0003978114        1.7950338125        1.7950350597
  C         2.6925559038        2.6925552037        0.8972416290
  C         1.7950347815       -0.0003988928        1.7950350385
  C         2.6925537046        0.8972413913        2.6925548337
  C         1.7950352413        1.7950359215       -0.0003978610
       8
 i =        4, E =       -45.1102562132
  C         0.8974681694        2.6925262154        2.6925263233
  C        -0.0001840258       -0.0001832320       -0.0001840648
  C         0.8973266593        0.8973259105        0.8973258263
  C        -0.0000870569        1.7950260548        1.7950267134
  C         2.6925268131        2.6925263306        0.8974687827
  C         1.7950265783       -0.0000877312        1.7950267173
  C         2.6925255296        0.8974686920        2.6925261296
  C         1.7950268383        1.7950272726       -0.0000870746
       8
 i =        5, E =       -45.1102562124
  C         0.8974681694        2.6925262154        2.6925263233
  C        -0.0001840258       -0.0001832320       -0.0001840648
  C         0.8973266593        0.8973259105        0.8973258263
  C        -0.0000870569        1.7950260548        1.7950267134
  C         2.6925268131        2.6925263306        0.8974687827
  C         1.7950265783       -0.0000877312        1.7950267173
  C         2.6925255296        0.8974686920        2.6925261296
  C         1.7950268383        1.7950272726       -0.0000870746
