       3
 i =        1, E =       -17.2210871668
  H         7.6533963396        8.2547800203        7.2823633130
  H         7.6304891214        6.7450123961        7.2349753022
  O         7.3287695924        7.4882930375        7.7782793312
       3
 i =        2, E =       -17.2211058651
  H         7.6518929156        8.2624435263        7.2851633608
  H         7.6270740347        6.7428713853        7.2414012356
  O         7.2993359172        7.4940900519        7.7727703756
       3
 i =        3, E =       -17.2212710596
  H         7.6496584522        8.2712176247        7.2882541326
  H         7.6236327574        6.7364909586        7.2457107207
  O         7.3171364899        7.4958687545        7.7737219310
       3
 i =        4, E =       -17.2213061334
  H         7.6476326705        8.2699381539        7.2908982916
  H         7.6202251375        6.7417032931        7.2513760760
  O         7.3156803716        7.4988735644        7.7817084883
       3
 i =        5, E =       -17.2213168612
  H         7.6459959588        8.2717156975        7.2929423680
  H         7.6176938943        6.7423092787        7.2552935470
  O         7.3112717203        7.5006766242        7.7813700010
       3
 i =        6, E =       -17.2213193860
  H         7.6452611575        8.2725187612        7.2939520136
  H         7.6171082276        6.7413019630        7.2563500386
  O         7.3123163349        7.5003141891        7.7814703839
       3
 i =        7, E =       -17.2213195149
  H         7.6448046867        8.2724785656        7.2944466163
  H         7.6169604042        6.7410320344        7.2568535576
  O         7.3122239813        7.5000514064        7.7817305211
       3
 i =        8, E =       -17.2213195148
  H         7.6448046867        8.2724785656        7.2944466163
  H         7.6169604042        6.7410320344        7.2568535576
  O         7.3122239813        7.5000514064        7.7817305211
