       8
 i =        1, E =       -44.9685764165
  C         0.8894237633        2.6965583483        2.6965560439
  C        -0.0076373946       -0.0076466960       -0.0076376892
  C         0.8950300784        0.8950379744        0.8950364646
  C        -0.0120816743        1.7939080575        1.7939032153
  C         2.6965520346        2.6965577039        0.8894174673
  C         1.7939035560       -0.0120729327        1.7939015790
  C         2.6965644667        0.8894163032        2.6965604662
  C         1.7939021267        1.7938978267       -0.0120805839
       8
 i =        2, E =       -44.9687363538
  C         0.8957089562        2.7018169853        2.7018164321
  C        -0.0059994256       -0.0059993880       -0.0059991241
  C         0.8971037801        0.8971036275        0.8971041588
  C        -0.0068242219        1.7990468803        1.7990463066
  C         2.7018157129        2.7018159449        0.8957080931
  C         1.7990471284       -0.0068238921        1.7990466583
  C         2.7018174043        0.8957091796        2.7018166608
  C         1.7990456756        1.7990455846       -0.0068250082
       8
 i =        3, E =       -44.9687697264
  C         0.9083262044        2.7122053256        2.7122066346
  C         0.0018606322        0.0018650511        0.0018604459
  C         0.9045843372        0.9045805564        0.9045807682
  C         0.0050901948        1.8096434060        1.8096461065
  C         2.7122091528        2.7122062840        0.9083298165
  C         1.8096454811        0.0050856921        1.8096465902
  C         2.7122020825        0.9083297221        2.7122044171
  C         1.8096470959        1.8096493637        0.0050900383
       8
 i =        4, E =       -44.9688298511
  C         0.9023540415        2.7073307825        2.7073308352
  C        -0.0005230853       -0.0005223781       -0.0005230207
  C         0.9020504414        0.9020497707        0.9020499604
  C        -0.0002731909        1.8048240860        1.8048243763
  C         2.7073310794        2.7073306856        0.9023544184
  C         1.8048244623       -0.0002738587        1.8048245533
  C         2.7073303309        0.9023546540        2.7073305283
  C         1.8048243741        1.8048247312       -0.0002733874
       8
 i =        5, E =       -44.9688303479
  C         0.9025473816        2.7075467965        2.7075468008
  C        -0.0000160199       -0.0000159247       -0.0000160312
  C         0.9024828364        0.9024827490        0.9024827575
  C         0.0000014679        1.8050444314        1.8050444721
  C         2.7075468321        2.7075467907        0.9025474186
  C         1.8050444690        0.0000013908        1.8050444877
  C         2.7075467352        0.9025474464        2.7075467590
  C         1.8050444761        1.8050445115        0.0000014359
       8
 i =        6, E =       -44.9688303481
  C         0.9025473816        2.7075467965        2.7075468008
  C        -0.0000160199       -0.0000159247       -0.0000160312
  C         0.9024828364        0.9024827490        0.9024827575
  C         0.0000014679        1.8050444314        1.8050444721
  C         2.7075468321        2.7075467907        0.9025474186
  C         1.8050444690        0.0000013908        1.8050444877
  C         2.7075467352        0.9025474464        2.7075467590
  C         1.8050444761        1.8050445115        0.0000014359
