       8
 i =        1, E =       -44.9370410871
  C         0.8925435284        2.6619062605        2.6619101627
  C         0.0151702460        0.0151691407        0.0151702872
  C         0.8965113017        0.8965104866        0.8965177023
  C         0.0117211880        1.7788018825        1.7787897657
  C         2.6619009908        2.6619086793        0.8925367740
  C         1.7787962801        0.0117220673        1.7787984663
  C         2.6619138479        0.8925443189        2.6619051621
  C         1.7787921841        1.7787866968        0.0117212181
       8
 i =        2, E =       -44.9372608782
  C         0.8892919776        2.6554852336        2.6554865614
  C         0.0101594692        0.0101586558        0.0101601939
  C         0.8925190249        0.8925183609        0.8925230603
  C         0.0073322864        1.7731232488        1.7731161150
  C         2.6554808812        2.6554851946        0.8892878624
  C         1.7731204617        0.0073330703        1.7731213479
  C         2.6554896668        0.8892926402        2.6554843750
  C         1.7731165780        1.7731136708        0.0073315214
       8
 i =        3, E =       -44.9372534187
  C         0.8767735934        2.6384283554        2.6384244506
  C        -0.0072178760       -0.0072175677       -0.0072166222
  C         0.8761771877        0.8761772562        0.8761742366
  C        -0.0069440294        1.7568832381        1.7568898699
  C         2.6384293736        2.6384245613        0.8767771476
  C         1.7568873148       -0.0069442888        1.7568850482
  C         2.6384237496        0.8767734462        2.6384286001
  C         1.7568869684        1.7568908312       -0.0069449148
       8
 i =        4, E =       -44.9374302177
  C         0.8827333698        2.6475272941        2.6475264871
  C         0.0008628233        0.0008626248        0.0008635046
  C         0.8835460864        0.8835458741        0.8835465012
  C        -0.0000156927        1.7652030864        1.7652028336
  C         2.6475260995        2.6475260028        0.8827331298
  C         1.7652034928       -0.0000155096        1.7652030311
  C         2.6475273046        0.8827335464        2.6475271247
  C         1.7652020245        1.7652023162       -0.0000162497
       8
 i =        5, E =       -44.9374323012
  C         0.8825607384        2.6473986720        2.6473983493
  C         0.0000709954        0.0000709574        0.0000712163
  C         0.8826066142        0.8826065667        0.8826065801
  C        -0.0000312256        1.7649534410        1.7649536190
  C         2.6473984470        2.6473982401        0.8825608562
  C         1.7649536748       -0.0000312069        1.7649534850
  C         2.6473984964        0.8825607637        2.6473986495
  C         1.7649533477        1.7649535520       -0.0000313630
       8
 i =        6, E =       -44.9374323008
  C         0.8825607384        2.6473986720        2.6473983493
  C         0.0000709954        0.0000709574        0.0000712163
  C         0.8826066142        0.8826065667        0.8826065801
  C        -0.0000312256        1.7649534410        1.7649536190
  C         2.6473984470        2.6473982401        0.8825608562
  C         1.7649536748       -0.0000312069        1.7649534850
  C         2.6473984964        0.8825607637        2.6473986495
  C         1.7649533477        1.7649535520       -0.0000313630
