       8
 i =        1, E =       -45.0895071896
  C         0.8919347983        2.6601058733        2.6601115602
  C         0.0218153312        0.0218130423        0.0218133452
  C         0.9009057337        0.9009059414        0.9009121042
  C         0.0139026871        1.7794801913        1.7794680256
  C         2.6601031667        2.6601119900        0.8919287435
  C         1.7794736197        0.0139047027        1.7794775014
  C         2.6601150785        0.8919351221        2.6601065782
  C         1.7794722370        1.7794658925        0.0139048405
       8
 i =        2, E =       -45.0896315433
  C         0.8901468876        2.6557281999        2.6557343139
  C         0.0210907612        0.0210882378        0.0210885156
  C         0.9012814799        0.9012811534        0.9012885980
  C         0.0106956178        1.7756091427        1.7755956725
  C         2.6557247046        2.6557350462        0.8901398020
  C         1.7756018193        0.0106981133        1.7756065137
  C         2.6557386021        0.8901472206        2.6557290964
  C         1.7756000890        1.7755926591        0.0106979200
       8
 i =        3, E =       -45.0897319182
  C         0.8839881447        2.6493460621        2.6493527260
  C         0.0185215838        0.0185183626        0.0185192723
  C         0.8992245233        0.8992235610        0.8992334177
  C         0.0031835051        1.7697472177        1.7697311085
  C         2.6493410223        2.6493535975        0.8839793426
  C         1.7697387932        0.0031866477        1.7697443289
  C         2.6493586495        0.8839887654        2.6493473210
  C         1.7697357518        1.7697268639        0.0031860557
       8
 i =        4, E =       -45.0897958500
  C         0.8694277295        2.6376628708        2.6376700496
  C         0.0124672427        0.0124624152        0.0124650632
  C         0.8932512065        0.8932492613        0.8932635220
  C        -0.0127532840        1.7583926168        1.7583728792
  C         2.6376554177        2.6376709213        0.8694163842
  C         1.7583831739       -0.0127491736        1.7583895624
  C         2.6376786959        0.8694287225        2.6376651243
  C         1.7583770225        1.7583663935       -0.0127499900
       8
 i =        5, E =       -45.0898397445
  C         0.8715707469        2.6409368380        2.6409438448
  C         0.0132788517        0.0132743128        0.0132761214
  C         0.8936942919        0.8936928789        0.8937060770
  C        -0.0097067277        1.7612199234        1.7612007957
  C         2.6409303382        2.6409450899        0.8715594999
  C         1.7612107627       -0.0097027064        1.7612165711
  C         2.6409517408        0.8715716976        2.6409388815
  C         1.7612050850        1.7611951184       -0.0097030745
       8
 i =        6, E =       -45.0898492323
  C         0.8705446893        2.6413801099        2.6413869915
  C         0.0127519288        0.0127474507        0.0127478770
  C         0.8928972196        0.8928962995        0.8929097311
  C        -0.0099843815        1.7613219816        1.7613035040
  C         2.6413750559        2.6413888191        0.8705327169
  C         1.7613132889       -0.0099804574        1.7613180558
  C         2.6413939423        0.8705453456        2.6413823275
  C         1.7613071826        1.7612979669       -0.0099793563
       8
 i =        7, E =       -45.0898492321
  C         0.8705446893        2.6413801099        2.6413869915
  C         0.0127519288        0.0127474507        0.0127478770
  C         0.8928972196        0.8928962995        0.8929097311
  C        -0.0099843815        1.7613219816        1.7613035040
  C         2.6413750559        2.6413888191        0.8705327169
  C         1.7613132889       -0.0099804574        1.7613180558
  C         2.6413939423        0.8705453456        2.6413823275
  C         1.7613071826        1.7612979669       -0.0099793563
