       8
 i =        1, E =       -45.1035473114
  C         0.8932510356        2.6740616837        2.6740645409
  C         0.0038449285        0.0038355336        0.0038425978
  C         0.8936989727        0.8937061375        0.8937068618
  C         0.0034589522        1.7840386619        1.7840283587
  C         2.6740574149        2.6740682154        0.8932449936
  C         1.7840308010        0.0034686029        1.7840339520
  C         2.6740739815        0.8932456535        2.6740652383
  C         1.7840324950        1.7840241583        0.0034620230
       8
 i =        2, E =       -45.1035602579
  C         0.8923812534        2.6724545904        2.6724563107
  C         0.0027379144        0.0027315772        0.0027362298
  C         0.8926992068        0.8927031954        0.8927038291
  C         0.0024613251        1.7825006503        1.7824938117
  C         2.6724509531        2.6724586926        0.8923765556
  C         1.7824953164        0.0024676467        1.7824976706
  C         2.6724623275        0.8923772222        2.6724570357
  C         1.7824961068        1.7824907841        0.0024629961
       8
 i =        3, E =       -45.1035695059
  C         0.8902423649        2.6698954461        2.6698952467
  C         0.0002706315        0.0002698936        0.0002704833
  C         0.8903070932        0.8903068637        0.8903072191
  C         0.0001870294        1.7799588783        1.7799580286
  C         2.6698942400        2.6698954571        0.8902414114
  C         1.7799583175        0.0001876018        1.7799586357
  C         2.6698959945        0.8902417803        2.6698957557
  C         1.7799578610        1.7799575145        0.0001868350
       8
 i =        4, E =       -45.1035701772
  C         0.8900712941        2.6699695827        2.6699694070
  C         0.0000753105        0.0000749872        0.0000753025
  C         0.8900849809        0.8900848870        0.8900851196
  C         0.0000441233        1.7799862634        1.7799858344
  C         2.6699690217        2.6699695080        0.8900709200
  C         1.7799860856        0.0000443918        1.7799861457
  C         2.6699698904        0.8900711391        2.6699697359
  C         1.7799857459        1.7799856183        0.0000440411
       8
 i =        5, E =       -45.1035701763
  C         0.8900712941        2.6699695827        2.6699694070
  C         0.0000753105        0.0000749872        0.0000753025
  C         0.8900849809        0.8900848870        0.8900851196
  C         0.0000441233        1.7799862634        1.7799858344
  C         2.6699690217        2.6699695080        0.8900709200
  C         1.7799860856        0.0000443918        1.7799861457
  C         2.6699698904        0.8900711391        2.6699697359
  C         1.7799857459        1.7799856183        0.0000440411
