       3
 i =        0, time =        0.000, E =       -17.2192675424
  H         7.6494840704        8.2713985101        7.2900994549
  H         7.6256783471        6.7286014899        7.2418090373
  O         7.3505159296        7.4890220414        7.7581909628
       3
 i =        1, time =        0.500, E =       -17.2193875414
  H         7.6512872254        8.2682747068        7.2868222603
  H         7.6287091886        6.7287523372        7.2366191243
  O         7.3502022736        7.4892089407        7.7587286534
       3
 i =        2, time =        1.000, E =       -17.2194861400
  H         7.6534669220        8.2660809919        7.2829523490
  H         7.6318607336        6.7286213805        7.2312055107
  O         7.3498567855        7.4893551626        7.7593178238
       3
 i =        3, time =        1.500, E =       -17.2195510498
  H         7.6560983660        8.2646092288        7.2783486722
  H         7.6351629395        6.7285508243        7.2255363858
  O         7.3494728331        7.4894522739        7.7599693508
       3
 i =        4, time =        2.000, E =       -17.2195695273
  H         7.6588990797        8.2637912052        7.2734924239
  H         7.6382281321        6.7288687975        7.2202961059
  O         7.3490925942        7.4894839199        7.7606097899
       3
 i =        5, time =        2.500, E =       -17.2195473026
  H         7.6618699998        8.2633455097        7.2683658997
  H         7.6410657717        6.7298418010        7.2154837659
  O         7.3487154206        7.4894510403        7.7612402976
       3
 i =        6, time =        3.000, E =       -17.2194861050
  H         7.6651673663        8.2629668495        7.2626834216
  H         7.6438328821        6.7317898709        7.2108483182
  O         7.3483216136        7.4893527096        7.7618946756
       3
 i =        7, time =        3.500, E =       -17.2194047832
  H         7.6682902443        8.2624068569        7.2572907691
  H         7.6461439103        6.7346441420        7.2070477234
  O         7.3479670191        7.4892089292        7.7624781763
       3
 i =        8, time =        4.000, E =       -17.2193245516
  H         7.6710788124        8.2614174018        7.2524478816
  H         7.6479471702        6.7383772241        7.2041692393
  O         7.3476650270        7.4890370446        7.7629689094
       3
 i =        9, time =        4.500, E =       -17.2192629170
  H         7.6733173196        8.2598647732        7.2485172369
  H         7.6491829637        6.7427200782        7.2022998930
  O         7.3474330810        7.4888624096        7.7633385461
       3
 i =       10, time =        5.000, E =       -17.2192152270
  H         7.6751306720        8.2574965455        7.2452696674
  H         7.6499999345        6.7478927024        7.2011972916
  O         7.3472540513        7.4886870336        7.7636167921
       3
 i =       11, time =        5.500, E =       -17.2191809003
  H         7.6762097065        8.2546727104        7.2432564710
  H         7.6503499596        6.7528363167        7.2008828762
  O         7.3471505263        7.4885549137        7.7637675665
       3
 i =       12, time =        6.000, E =       -17.2191503017
  H         7.6766250725        8.2514423820        7.2423590370
  H         7.6503590547        6.7573713149        7.2011299744
  O         7.3471102121        7.4884742205        7.7638126378
       3
 i =       13, time =        6.500, E =       -17.2191080547
  H         7.6764519434        8.2476280175        7.2424379372
  H         7.6501257367        6.7616446990        7.2017779812
  O         7.3471222413        7.4884468294        7.7637709259
       3
 i =       14, time =        7.000, E =       -17.2190565698
  H         7.6757810744        8.2439780961        7.2433805273
  H         7.6497792940        6.7647636078        7.2025534238
  O         7.3471728099        7.4884817908        7.7636667731
       3
 i =       15, time =        7.500, E =       -17.2190163370
  H         7.6747994819        8.2410682833        7.2448990116
  H         7.6494359113        6.7662957733        7.2032319475
  O         7.3472428486        7.4885700349        7.7635324617
       3
 i =       16, time =        8.000, E =       -17.2189968357
  H         7.6734294968        8.2386392818        7.2471116217
  H         7.6490786142        6.7663729694        7.2038503011
  O         7.3473383256        7.4887195777        7.7633582406
       3
 i =       17, time =        8.500, E =       -17.2190164021
  H         7.6720855139        8.2375143670        7.2493547217
  H         7.6487944083        6.7649306381        7.2042554581
  O         7.3474276670        7.4888825996        7.7631955717
       3
 i =       18, time =        9.000, E =       -17.2190812591
  H         7.6707766995        8.2377579840        7.2516162949
  H         7.6485319133        6.7620493791        7.2045402467
  O         7.3475135135        7.4890499703        7.7630393643
       3
 i =       19, time =        9.500, E =       -17.2191879350
  H         7.6694581004        8.2395499319        7.2539838502
  H         7.6482029401        6.7576417236        7.2048509400
  O         7.3476042402        7.4892158787        7.7628748901
       3
 i =       20, time =       10.000, E =       -17.2193073698
  H         7.6682502517        8.2428367185        7.2562474662
  H         7.6477323575        6.7522547157        7.2053480589
  O         7.3476969868        7.4893492319        7.7627052616
       3
 i =       21, time =       10.500, E =       -17.2194123374
  H         7.6671530529        8.2474796836        7.2583993074
  H         7.6470171672        6.7462976759        7.2062319822
  O         7.3477982536        7.4894329866        7.7625183435
       3
 i =       22, time =       11.000, E =       -17.2194774354
  H         7.6662394476        8.2526413671        7.2602658512
  H         7.6460558930        6.7408634586        7.2075683871
  O         7.3479035570        7.4894510631        7.7623209236
       3
 i =       23, time =       11.500, E =       -17.2195083255
  H         7.6653384681        8.2584698358        7.2621490029
  H         7.6446990532        6.7357430738        7.2096016652
  O         7.3480331058        7.4894073146        7.7620785765
       3
 i =       24, time =       12.000, E =       -17.2195074221
  H         7.6643580931        8.2645883118        7.2641848484
  H         7.6429047425        6.7312184912        7.2124200395
  O         7.3481953846        7.4893077164        7.7617771637
       3
 i =       25, time =       12.500, E =       -17.2194864381
  H         7.6632350008        8.2704154864        7.2664484035
  H         7.6407260289        6.7276203083        7.2159516309
  O         7.3483910999        7.4891680524        7.7614164809
       3
 i =       26, time =       13.000, E =       -17.2194611965
  H         7.6619194537        8.2754691250        7.2689970897
  H         7.6382566442        6.7250986122        7.2200443900
  O         7.3486175420        7.4890092254        7.7610024823
       3
 i =       27, time =       13.500, E =       -17.2194438707
  H         7.6604285272        8.2792861951        7.2717748382
  H         7.6356907992        6.7236931772        7.2243675511
  O         7.3488614543        7.4888578727        7.7605595325
       3
 i =       28, time =       14.000, E =       -17.2194327043
  H         7.6586327297        8.2820258816        7.2750129662
  H         7.6329295084        6.7231396592        7.2290756257
  O         7.3491372532        7.4887205993        7.7600633213
       3
 i =       29, time =       14.500, E =       -17.2194176353
  H         7.6566057401        8.2835376560        7.2785763806
  H         7.6301818980        6.7232423999        7.2337985816
  O         7.3494271677        7.4886191876        7.7595456646
       3
 i =       30, time =       15.000, E =       -17.2193835942
  H         7.6543212697        8.2839188886        7.2825158383
  H         7.6274789625        6.7237314747        7.2384675627
  O         7.3497309262        7.4885644919        7.7590076994
       3
 i =       31, time =       15.500, E =       -17.2193270113
  H         7.6520899419        8.2833073211        7.2863065866
  H         7.6252165232        6.7242486203        7.2423828664
  O         7.3500040429        7.4885703933        7.7585265624
       3
 i =       32, time =       16.000, E =       -17.2192670592
  H         7.6502589113        8.2821026968        7.2893764587
  H         7.6237102126        6.7244727465        7.2449844883
  O         7.3502046973        7.4886319537        7.7581735828
       3
 i =       33, time =       16.500, E =       -17.2191964282
  H         7.6483707121        8.2802265339        7.2925056077
  H         7.6225558313        6.7242843820        7.2469586886
  O         7.3503870608        7.4887616864        7.7578563902
       3
 i =       34, time =       17.000, E =       -17.2191402454
  H         7.6469331105        8.2783619299        7.2948627454
  H         7.6220393258        6.7236018590        7.2478103379
  O         7.3505010921        7.4889217145        7.7576585617
       3
 i =       35, time =       17.500, E =       -17.2191133138
  H         7.6460307090        8.2767960556        7.2963194143
  H         7.6221250051        6.7224518695        7.2476022383
  O         7.3505436117        7.4890923091        7.7575842469
       3
 i =       36, time =       18.000, E =       -17.2191205725
  H         7.6456648405        8.2755988841        7.2968773807
  H         7.6227928015        6.7208135925        7.2463676810
  O         7.3505156918        7.4892704144        7.7576312483
       3
 i =       37, time =       18.500, E =       -17.2191600711
  H         7.6459471850        8.2750700283        7.2963623921
  H         7.6238968333        6.7190917162        7.2443802495
  O         7.3504193765        7.4894117030        7.7577933160
       3
 i =       38, time =       19.000, E =       -17.2192170932
  H         7.6467738539        8.2752384996        7.2949542254
  H         7.6251359656        6.7177996195        7.2421859865
  O         7.3502800885        7.4894820420        7.7580247209
       3
 i =       39, time =       19.500, E =       -17.2192977145
  H         7.6484539149        8.2760653580        7.2921206277
  H         7.6269389804        6.7166539682        7.2390332679
  O         7.3500513006        7.4895017555        7.7584063325
       3
 i =       40, time =       20.000, E =       -17.2193630629
  H         7.6505750119        8.2771717310        7.2885467935
  H         7.6288353103        6.7161996644        7.2357603829
  O         7.3497885185        7.4894604330        7.7588421662
       3
 i =       41, time =       20.500, E =       -17.2194065612
  H         7.6530351438        8.2782587824        7.2843904526
  H         7.6307625718        6.7166376158        7.2324858250
  O         7.3495020656        7.4893642598        7.7593148080
       3
 i =       42, time =       21.000, E =       -17.2194298387
  H         7.6557954059        8.2790264535        7.2797011031
  H         7.6327290778        6.7181542352        7.2292060291
  O         7.3491938408        7.4892204074        7.7598213512
       3
 i =       43, time =       21.500, E =       -17.2194393997
  H         7.6586815325        8.2791136682        7.2747568719
  H         7.6346637131        6.7208437631        7.2260483102
  O         7.3488792999        7.4890456968        7.7603362446
       3
 i =       44, time =       22.000, E =       -17.2194452664
  H         7.6616199310        8.2781918373        7.2696651899
  H         7.6365854240        6.7248060354        7.2229858887
  O         7.3485618997        7.4888545445        7.7608544021
       3
 i =       45, time =       22.500, E =       -17.2194538535
  H         7.6644030015        8.2760168781        7.2647680617
  H         7.6384416765        6.7298778592        7.2200994009
  O         7.3482580302        7.4886726121        7.7613491926
       3
 i =       46, time =       23.000, E =       -17.2194631435
  H         7.6669517495        8.2723980917        7.2601900161
  H         7.6402740103        6.7359489628        7.2173112521
  O         7.3479700760        7.4885188604        7.7618176565
       3
 i =       47, time =       23.500, E =       -17.2194627319
  H         7.6689776277        8.2676624285        7.2564445281
  H         7.6419644274        6.7422016176        7.2147765350
  O         7.3477236726        7.4884242054        7.7622176689
       3
 i =       48, time =       24.000, E =       -17.2194408822
  H         7.6704725468        8.2620148690        7.2535571408
  H         7.6435637496        6.7482744952        7.2123873192
  O         7.3475161754        7.4883984753        7.7625544221
       3
 i =       49, time =       24.500, E =       -17.2193800113
  H         7.6715549380        8.2554008503        7.2513215378
  H         7.6452211939        6.7541781516        7.2098884561
  O         7.3473307627        7.4884444111        7.7628569948
       3
 i =       50, time =       25.000, E =       -17.2192767033
  H         7.6722191613        8.2487181297        7.2497990400
  H         7.6468553805        6.7591369279        7.2073747054
  O         7.3471729309        7.4885542885        7.7631155622
       3
 i =       51, time =       25.500, E =       -17.2191239004
  H         7.6726370023        8.2418009638        7.2486855251
  H         7.6486478686        6.7633392917        7.2045457778
  O         7.3470204378        7.4887266404        7.7633682126
       3
 i =       52, time =       26.000, E =       -17.2189423700
  H         7.6729199149        8.2354870231        7.2478382074
  H         7.6505180074        6.7663663169        7.2015157628
  O         7.3468713296        7.4889350668        7.7636167632
       3
 i =       53, time =       26.500, E =       -17.2187467933
  H         7.6732327220        8.2298770834        7.2469803587
  H         7.6525705507        6.7682764271        7.1981085591
  O         7.3467086125        7.4891695326        7.7638897486
       3
 i =       54, time =       27.000, E =       -17.2186079603
  H         7.6736544855        8.2263668093        7.2460569613
  H         7.6543908636        6.7687559356        7.1950167922
  O         7.3465533956        7.4893618832        7.7641470029
       3
 i =       55, time =       27.500, E =       -17.2185540246
  H         7.6742553830        8.2251219744        7.2449573119
  H         7.6558934481        6.7680007434        7.1923983902
  O         7.3464066577        7.4894893437        7.7643855484
       3
 i =       56, time =       28.000, E =       -17.2185815110
  H         7.6750949108        8.2261005219        7.2435770454
  H         7.6571008894        6.7661453903        7.1902224361
  O         7.3462632477        7.4895460965        7.7646139003
       3
 i =       57, time =       28.500, E =       -17.2186645679
  H         7.6760822720        8.2291924451        7.2420654602
  H         7.6578485152        6.7634745168        7.1887875445
  O         7.3461392751        7.4895211501        7.7648038307
       3
 i =       58, time =       29.000, E =       -17.2187607917
  H         7.6769943000        8.2337437897        7.2407672782
  H         7.6579808389        6.7605130015        7.1883903811
  O         7.3460586368        7.4894226422        7.7649149232
       3
 i =       59, time =       29.500, E =       -17.2188499822
  H         7.6777140687        8.2394948968        7.2398678479
  H         7.6574550093        6.7573575984        7.1891098590
  O         7.3460314752        7.4892608317        7.7649305256
       3
 i =       60, time =       30.000, E =       -17.2189211186
  H         7.6780357672        8.2456710561        7.2396750906
  H         7.6562701083        6.7543394035        7.1909665378
  O         7.3460709034        7.4890636575        7.7648299451
       3
 i =       61, time =       30.500, E =       -17.2189868147
  H         7.6778121644        8.2520814489        7.2404301679
  H         7.6543720470        6.7514297940        7.1940513359
  O         7.3461897068        7.4888449193        7.7645922694
       3
 i =       62, time =       31.000, E =       -17.2190590994
  H         7.6769486038        8.2576170205        7.2422311742
  H         7.6520141582        6.7489772254        7.1979502295
  O         7.3463780056        7.4886524933        7.7642374161
       3
 i =       63, time =       31.500, E =       -17.2191591477
  H         7.6753051694        8.2624550247        7.2453278953
  H         7.6490744494        6.7467255243        7.2028574614
  O         7.3466523935        7.4884912975        7.7637374288
       3
 i =       64, time =       32.000, E =       -17.2192758147
  H         7.6730872609        8.2658248328        7.2493238033
  H         7.6460335657        6.7448479483        7.2079596971
  O         7.3469697669        7.4883988990        7.7631685456
       3
 i =       65, time =       32.500, E =       -17.2194060573
  H         7.6701619807        8.2680374332        7.2544643441
  H         7.6427426658        6.7430157417        7.2134931212
  O         7.3473479223        7.4883763703        7.7625004358
       3
 i =       66, time =       33.000, E =       -17.2195242187
  H         7.6664480862        8.2692640608        7.2608983267
  H         7.6391470952        6.7409491511        7.2195353836
  O         7.3477954909        7.4884304957        7.7617188381
       3
 i =       67, time =       33.500, E =       -17.2195857009
  H         7.6623201486        8.2696257959        7.2679908209
  H         7.6356050056        6.7385825670        7.2254693434
  O         7.3482663908        7.4885577291        7.7609026277
       3
 i =       68, time =       34.000, E =       -17.2195593158
  H         7.6575212080        8.2694783035        7.2762023428
  H         7.6318643978        6.7354675479        7.2317008219
  O         7.3487926992        7.4887638982        7.7599972103
       3
 i =       69, time =       34.500, E =       -17.2194397549
  H         7.6530057832        8.2692904844        7.2839250417
  H         7.6285925033        6.7319316379        7.2371057170
  O         7.3492723013        7.4889987969        7.7591746875
       3
 i =       70, time =       35.000, E =       -17.2192673703
  H         7.6490230111        8.2695319642        7.2907597224
  H         7.6258537176        6.7279721146        7.2415733645
  O         7.3496853681        7.4892330506        7.7584671750
       3
 i =       71, time =       35.500, E =       -17.2190764307
  H         7.6455009705        8.2706344263        7.2968548985
  H         7.6234821216        6.7233688428        7.2453750853
  O         7.3500467895        7.4894533845        7.7578482247
       3
 i =       72, time =       36.000, E =       -17.2189272758
  H         7.6429132340        8.2727825194        7.3014104516
  H         7.6216845598        6.7186963680        7.2481896255
  O         7.3503136535        7.4896120126        7.7573884877
       3
 i =       73, time =       36.500, E =       -17.2188417543
  H         7.6412967716        8.2760332858        7.3043664772
  H         7.6204026231        6.7141730055        7.2501295725
  O         7.3504871834        7.4896916542        7.7570846392
       3
 i =       74, time =       37.000, E =       -17.2188113855
  H         7.6406264765        8.2802022668        7.3057553012
  H         7.6195811214        6.7100937927        7.2513064707
  O         7.3505723195        7.4896853996        7.7569276050
       3
 i =       75, time =       37.500, E =       -17.2188047173
  H         7.6407807766        8.2851420884        7.3057765036
  H         7.6191247236        6.7065486443        7.2518888066
  O         7.3505826142        7.4895969192        7.7568941868
       3
 i =       76, time =       38.000, E =       -17.2187922917
  H         7.6416045655        8.2901406654        7.3046545701
  H         7.6190003502        6.7039551644        7.2519573560
  O         7.3505298293        7.4894447878        7.7569651433
       3
 i =       77, time =       38.500, E =       -17.2187587287
  H         7.6429835936        8.2950046286        7.3025739242
  H         7.6191577093        6.7023393169        7.2515997951
  O         7.3504242537        7.4892395769        7.7571233250
       3
 i =       78, time =       39.000, E =       -17.2187052822
  H         7.6448064988        8.2993199326        7.2997013407
  H         7.6195886223        6.7018506081        7.2508387959
  O         7.3502733567        7.4889979683        7.7573567891
       3
 i =       79, time =       39.500, E =       -17.2186630621
  H         7.6467725805        8.3022141508        7.2965014297
  H         7.6202582491        6.7026491562        7.2497432852
  O         7.3500982264        7.4887648601        7.7576319188
       3
 i =       80, time =       40.000, E =       -17.2186748450
  H         7.6485775374        8.3030993472        7.2934614153
  H         7.6211104811        6.7046374118        7.2484037415
  O         7.3499215425        7.4885834484        7.7579123208
       3
 i =       81, time =       40.500, E =       -17.2187654683
  H         7.6502215580        8.3018468402        7.2905736460
  H         7.6222012742        6.7078068900        7.2467238681
  O         7.3497397604        7.4884623761        7.7582045512
       3
 i =       82, time =       41.000, E =       -17.2189326864
  H         7.6516457291        8.2983982454        7.2879357015
  H         7.6235528735        6.7119947803        7.2446561946
  O         7.3495551800        7.4884155833        7.7585054627
       3
 i =       83, time =       41.500, E =       -17.2191502227
  H         7.6528814927        8.2927643267        7.2854944372
  H         7.6252339120        6.7171016068        7.2420774652
  O         7.3493614947        7.4884486575        7.7588261808
       3
 i =       84, time =       42.000, E =       -17.2193647501
  H         7.6539775642        8.2852112138        7.2831818271
  H         7.6272838360        6.7228814919        7.2389059532
  O         7.3491531339        7.4885603352        7.7591761523
       3
 i =       85, time =       42.500, E =       -17.2195164266
  H         7.6550481353        8.2761215331        7.2808244573
  H         7.6297563921        6.7291091909        7.2350365702
  O         7.3489194873        7.4887407160        7.7595729313
       3
 i =       86, time =       43.000, E =       -17.2195586117
  H         7.6561574786        8.2668729754        7.2783916994
  H         7.6324593632        6.7349956510        7.2307528511
  O         7.3486685670        7.4889527199        7.7600005919
       3
 i =       87, time =       43.500, E =       -17.2195013946
  H         7.6575061109        8.2578871554        7.2755646392
  H         7.6354527368        6.7404816332        7.2259485964
  O         7.3483839296        7.4891735090        7.7604859193
       3
 i =       88, time =       44.000, E =       -17.2193798301
  H         7.6592712587        8.2497385220        7.2720730498
  H         7.6387272416        6.7454477106        7.2206326390
  O         7.3480549436        7.4893744205        7.7610453752
       3
 i =       89, time =       44.500, E =       -17.2192495398
  H         7.6615308409        8.2431895521        7.2678275402
  H         7.6421291512        6.7496676035        7.2150549836
  O         7.3476863154        7.4895216909        7.7616688298
       3
 i =       90, time =       45.000, E =       -17.2191523958
  H         7.6643210122        8.2386140035        7.2627879394
  H         7.6455451385        6.7531059830        7.2094075783
  O         7.3472828479        7.4895940303        7.7623467096
       3
 i =       91, time =       45.500, E =       -17.2191032711
  H         7.6673747112        8.2363728099        7.2574323550
  H         7.6486115518        6.7555873618        7.2043029153
  O         7.3468842290        7.4895797947        7.7630102929
       3
 i =       92, time =       46.000, E =       -17.2190708002
  H         7.6708091933        8.2360593106        7.2515366884
  H         7.6514796448        6.7574455068        7.1995015050
  O         7.3464735627        7.4894835965        7.7636887643
       3
 i =       93, time =       46.500, E =       -17.2190123401
  H         7.6743922667        8.2373393289        7.2454791538
  H         7.6540082031        6.7587871966        7.1952513793
  O         7.3460743717        7.4893197907        7.7643426462
       3
 i =       94, time =       47.000, E =       -17.2188951570
  H         7.6779604198        8.2397808814        7.2395146883
  H         7.6561486239        6.7597744443        7.1916452184
  O         7.3457000555        7.4891053999        7.7649500134
       3
 i =       95, time =       47.500, E =       -17.2187144333
  H         7.6812810212        8.2428963744        7.2340132334
  H         7.6578231656        6.7605357197        7.1888235431
  O         7.3453702238        7.4888630537        7.7654786833
       3
 i =       96, time =       48.000, E =       -17.2185183090
  H         7.6838883316        8.2459624637        7.2297300340
  H         7.6588569853        6.7611217464        7.1870884991
  O         7.3451253137        7.4886351146        7.7658620299
       3
 i =       97, time =       48.500, E =       -17.2183932533
  H         7.6853123996        8.2481787838        7.2274230550
  H         7.6591336521        6.7615244701        7.1866387991
  O         7.3450023884        7.4884724632        7.7660397994
       3
 i =       98, time =       49.000, E =       -17.2183676449
  H         7.6856768648        8.2495751534        7.2268822176
  H         7.6587416287        6.7618001826        7.1873261378
  O         7.3449882355        7.4883695852        7.7660346141
       3
 i =       99, time =       49.500, E =       -17.2184580325
  H         7.6849307303        8.2501424855        7.2281940887
  H         7.6576432357        6.7619174177        7.1892130113
  O         7.3450885696        7.4883289528        7.7658371273
       3
 i =      100, time =       50.000, E =       -17.2186382694
  H         7.6831650473        8.2498018953        7.2311981528
  H         7.6560241175        6.7617472421        7.1919741937
  O         7.3452860929        7.4883635707        7.7654779875
       3
 i =      101, time =       50.500, E =       -17.2188726277
  H         7.6803876563        8.2487106298        7.2358898722
  H         7.6538815758        6.7611385445        7.1956055426
  O         7.3455805911        7.4884729722        7.7649577830
       3
 i =      102, time =       51.000, E =       -17.2191027756
  H         7.6767065611        8.2471530626        7.2421006235
  H         7.6512742058        6.7599049836        7.1999960543
  O         7.3459616833        7.4886509029        7.7642941646
       3
 i =      103, time =       51.500, E =       -17.2192656298
  H         7.6724560009        8.2456174534        7.2492864125
  H         7.6483838806        6.7579090289        7.2048267112
  O         7.3463969638        7.4888752011        7.7635415192
       3
 i =      104, time =       52.000, E =       -17.2193358069
  H         7.6678156032        8.2446073576        7.2571686318
  H         7.6452498716        6.7549594695        7.2100194762
  O         7.3468727177        7.4891261534        7.7627223087
       3
 i =      105, time =       52.500, E =       -17.2193292426
  H         7.6635406895        8.2447544665        7.2644912619
  H         7.6422782804        6.7512917287        7.2148933417
  O         7.3473158340        7.4893491134        7.7619585437
       3
 i =      106, time =       53.000, E =       -17.2193004215
  H         7.6595681885        8.2464906066        7.2713870657
  H         7.6393185027        6.7466659326        7.2196922647
  O         7.3477397356        7.4895320250        7.7612264569
       3
 i =      107, time =       53.500, E =       -17.2192909061
  H         7.6559003101        8.2502780020        7.2778789590
  H         7.6362588235        6.7408922715        7.2245965175
  O         7.3481513013        7.4896577589        7.7605132235
       3
 i =      108, time =       54.000, E =       -17.2193214363
  H         7.6531766304        8.2556382804        7.2828457255
  H         7.6335624594        6.7349874175        7.2288723169
  O         7.3484810435        7.4896924363        7.7599356955
       3
 i =      109, time =       54.500, E =       -17.2193733782
  H         7.6511905009        8.2626858641        7.2866477370
  H         7.6310396283        6.7288018813        7.2328355824
  O         7.3487538247        7.4896383396        7.7594512526
       3
 i =      110, time =       55.000, E =       -17.2193932368
  H         7.6498476304        8.2710535395        7.2894253369
  H         7.6286634250        6.7225688968        7.2365456465
  O         7.3489772046        7.4895039619        7.7590472979
       3
 i =      111, time =       55.500, E =       -17.2193282642
  H         7.6490154150        8.2800501071        7.2913656726
  H         7.6264466568        6.7166495109        7.2400013114
  O         7.3491586689        7.4893101284        7.7587121040
       3
 i =      112, time =       56.000, E =       -17.2191581979
  H         7.6485081532        8.2889875345        7.2927468117
  H         7.6243750406        6.7113164678        7.2432426287
  O         7.3493107705        7.4890830179        7.7584256177
       3
 i =      113, time =       56.500, E =       -17.2189140665
  H         7.6481478412        8.2969329923        7.2938195504
  H         7.6224962943        6.7069442563        7.2462094190
  O         7.3494416886        7.4888578026        7.7581758211
       3
 i =      114, time =       57.000, E =       -17.2186577515
  H         7.6477686244        8.3032626358        7.2948316590
  H         7.6208181573        6.7037089206        7.2488985051
  O         7.3495613595        7.4886626920        7.7579473001
       3
 i =      115, time =       57.500, E =       -17.2184590257
  H         7.6472527419        8.3074549034        7.2959545385
  H         7.6193741280        6.7017351267        7.2512597136
  O         7.3496750743        7.4885226915        7.7577324176
       3
 i =      116, time =       58.000, E =       -17.2183978716
  H         7.6466603394        8.3086218788        7.2970342814
  H         7.6184633872        6.7013110171        7.2527979582
  O         7.3497601869        7.4884755895        7.7575720644
       3
 i =      117, time =       58.500, E =       -17.2184534111
  H         7.6459814716        8.3073477160        7.2981215182
  H         7.6179777138        6.7020749494        7.2536775403
  O         7.3498240953        7.4885073814        7.7574527163
       3
 i =      118, time =       59.000, E =       -17.2185960536
  H         7.6451614357        8.3037874853        7.2993187420
  H         7.6178297841        6.7039419383        7.2540429470
  O         7.3498757111        7.4886136560        7.7573588291
       3
 i =      119, time =       59.500, E =       -17.2187677047
  H         7.6443340805        8.2984101838        7.3004240741
  H         7.6180596251        6.7066827810        7.2538126058
  O         7.3499040566        7.4887793141        7.7573082741
       3
 i =      120, time =       60.000, E =       -17.2189040446
  H         7.6437314613        8.2923674920        7.3011069734
  H         7.6186551767        6.7097662258        7.2529766509
  O         7.3498952357        7.4889652862        7.7573225095
       3
 i =      121, time =       60.500, E =       -17.2189937556
  H         7.6434747702        8.2860674421        7.3011836714
  H         7.6196288467        6.7130690485        7.2515068472
  O         7.3498407790        7.4891536515        7.7574149000
       3
 i =      122, time =       61.000, E =       -17.2190468615
  H         7.6436979321        8.2792993552        7.3004130439
  H         7.6211161106        6.7168215285        7.2491848612
  O         7.3497236549        7.4893432005        7.7576143945
