       8
 i =        1, E =       -44.9518039466
  C         0.8921607392        2.6725118094        2.6725142659
  C         0.0027870820        0.0027798460        0.0027851311
  C         0.8924881769        0.8924934060        0.8924945884
  C         0.0025122586        1.7825753802        1.7825668374
  C         2.6725085801        2.6725177670        0.8921559376
  C         1.7825693789        0.0025203166        1.7825720820
  C         2.6725219928        0.8921565903        2.6725147989
  C         1.7825706387        1.7825635966        0.0025151860
       8
 i =        2, E =       -44.9518207156
  C         0.8908069058        2.6706836227        2.6706838278
  C         0.0009319332        0.0009309793        0.0009317662
  C         0.8908812884        0.8908816660        0.8908818533
  C         0.0008912843        1.7807511382        1.7807500635
  C         2.6706830142        2.6706841529        0.8908061954
  C         1.7807505463        0.0008921171        1.7807508431
  C         2.6706847205        0.8908064071        2.6706840368
  C         1.7807502719        1.7807497419        0.0008913955
       8
 i =        3, E =       -44.9518228814
  C         0.8898953260        2.6698705535        2.6698705213
  C        -0.0001272024       -0.0001269137       -0.0001271424
  C         0.8898767009        0.8898766041        0.8898765316
  C        -0.0001085028        1.7798768292        1.7798771305
  C         2.6698707736        2.6698704324        0.8898955433
  C         1.7798770240       -0.0001087683        1.7798769228
  C         2.6698702259        0.8898954494        2.6698704382
  C         1.7798770547        1.7798772338       -0.0001085479
       8
 i =        4, E =       -44.9518229290
  C         0.8900075814        2.6700040485        2.6700039866
  C         0.0000002560        0.0000004213        0.0000003204
  C         0.8900018966        0.8900017937        0.8900017730
  C         0.0000072194        1.7800034729        1.7800036519
  C         2.6700041289        2.6700039155        0.8900077008
  C         1.7800036361        0.0000070537        1.7800035519
  C         2.6700038353        0.8900076819        2.6700039809
  C         1.7800035665        1.7800037292        0.0000071546
       8
 i =        5, E =       -44.9518229289
  C         0.8900075814        2.6700040485        2.6700039866
  C         0.0000002560        0.0000004213        0.0000003204
  C         0.8900018966        0.8900017937        0.8900017730
  C         0.0000072194        1.7800034729        1.7800036519
  C         2.6700041289        2.6700039155        0.8900077008
  C         1.7800036361        0.0000070537        1.7800035519
  C         2.6700038353        0.8900076819        2.6700039809
  C         1.7800035665        1.7800037292        0.0000071546
