       8
 i =        1, E =       -44.9630025647
  C         0.8937219668        2.6892578571        2.6892532637
  C        -0.0027695370       -0.0027785822       -0.0027711023
  C         0.8949239640        0.8949319365        0.8949340400
  C        -0.0037498734        1.7916076007        1.7916032943
  C         2.6892514711        2.6892537677        0.8937124517
  C         1.7916061597       -0.0037414144        1.7916001066
  C         2.6892625098        0.8937162564        2.6892603023
  C         1.7915974248        1.7915961640       -0.0037483052
       8
 i =        2, E =       -44.9630288441
  C         0.8962783326        2.6915175676        2.6915175205
  C        -0.0013103720       -0.0013098968       -0.0013100425
  C         0.8963544100        0.8963538993        0.8963540978
  C        -0.0012786280        1.7939176368        1.7939175791
  C         2.6915172771        2.6915172221        0.8962784061
  C         1.7939179498       -0.0012789563        1.7939179621
  C         2.6915175523        0.8962787650        2.6915173079
  C         1.7939175200        1.7939176264       -0.0012791991
       8
 i =        3, E =       -44.9630330160
  C         0.8977312139        2.6927313847        2.6927314300
  C         0.0001813045        0.0001810784        0.0001810828
  C         0.8976910303        0.8976912668        0.8976910817
  C         0.0002258428        1.7952339537        1.7952340652
  C         2.6927316321        2.6927316879        0.8977312189
  C         1.7952338150        0.0002259685        1.7952338112
  C         2.6927313496        0.8977309227        2.6927315156
  C         1.7952341484        1.7952341162        0.0002261376
       8
 i =        4, E =       -44.9630331720
  C         0.8974977275        2.6924894440        2.6924895439
  C        -0.0000221238       -0.0000219098       -0.0000220479
  C         0.8974826908        0.8974825109        0.8974824937
  C         0.0000017272        1.7949908939        1.7949909414
  C         2.6924895466        2.6924894831        0.8974979156
  C         1.7949909443        0.0000015253        1.7949910499
  C         2.6924893832        0.8974979078        2.6924893818
  C         1.7949910479        1.7949910873        0.0000016424
       8
 i =        5, E =       -44.9630331715
  C         0.8974977275        2.6924894440        2.6924895439
  C        -0.0000221238       -0.0000219098       -0.0000220479
  C         0.8974826908        0.8974825109        0.8974824937
  C         0.0000017272        1.7949908939        1.7949909414
  C         2.6924895466        2.6924894831        0.8974979156
  C         1.7949909443        0.0000015253        1.7949910499
  C         2.6924893832        0.8974979078        2.6924893818
  C         1.7949910479        1.7949910873        0.0000016424
