       8
 i =        1, E =       -44.9036175165
  C         0.7377855815        2.7966474342        2.7967082049
  C        -0.0239484364       -0.0239542612       -0.0239834952
  C         0.9124819885        0.9124862093        0.9125121811
  C        -0.1215801336        1.8061034249        1.8060561067
  C         2.7966989437        2.7967525345        0.7377379370
  C         1.8060706810       -0.1215552235        1.8060997927
  C         2.7966998142        0.7377733863        2.7966944435
  C         1.8060982895        1.8060538222       -0.1215176265
       8
 i =        2, E =       -44.9281664155
  C         0.8438535581        2.8323304714        2.8323544348
  C        -0.1611377210       -0.1611445019       -0.1611557061
  C         0.8338052664        0.8338061566        0.8338073375
  C        -0.1037698324        1.8255662775        1.8255513471
  C         2.8323438409        2.8323657180        0.8438555322
  C         1.8255604508       -0.1037630088        1.8255615497
  C         2.8323467744        0.8438556145        2.8323440414
  C         1.8255704190        1.8255528666       -0.1037565366
       8
 i =        3, E =       -44.9362839200
  C         0.8770033095        2.7962332118        2.7962279029
  C        -0.1229984135       -0.1229921883       -0.1229837212
  C         0.8619389366        0.8619369530        0.8619340157
  C        -0.1035306758        1.8292625772        1.8292662788
  C         2.7962328759        2.7962284607        0.8770045165
  C         1.8292705445       -0.1035311137        1.8292585029
  C         2.7962318805        0.8770026875        2.7962291641
  C         1.8292606061        1.8292654741       -0.1035354814
       8
 i =        4, E =       -44.9379461954
  C         0.8662434806        2.8110391020        2.8110381223
  C        -0.1061586364       -0.1061616568       -0.1061632466
  C         0.8731634184        0.8731624855        0.8731599005
  C        -0.1003492664        1.8394067610        1.8394096328
  C         2.8110380166        2.8110368912        0.8662480146
  C         1.8394086099       -0.1003511290        1.8394068919
  C         2.8110374496        0.8662449513        2.8110373814
  C         1.8394054913        1.8394085500       -0.1003549109
       8
 i =        5, E =       -44.9388941067
  C         0.8777911898        2.8347394614        2.8347416437
  C        -0.0828213253       -0.0828196624       -0.0828197910
  C         0.8915887516        0.8915891467        0.8915902632
  C        -0.0863786640        1.8615838685        1.8615801660
  C         2.8347426198        2.8347437624        0.8777853287
  C         1.8615797536       -0.0863783274        1.8615827968
  C         2.8347424381        0.8777887447        2.8347405195
  C         1.8615810570        1.8615779571       -0.0863769321
       8
 i =        6, E =       -44.9390837249
  C         0.8874183319        2.8362668904        2.8362673044
  C        -0.0831317015       -0.0831369825       -0.0831413308
  C         0.8912568477        0.8912565506        0.8912554315
  C        -0.0820276147        1.8638780968        1.8638790788
  C         2.8362662731        2.8362667927        0.8874237308
  C         1.8638782434       -0.0820282804        1.8638800617
  C         2.8362650296        0.8874208460        2.8362682990
  C         1.8638793076        1.8638802346       -0.0820290326
       8
 i =        7, E =       -44.9391090030
  C         0.8914743370        2.8363320225        2.8363313821
  C        -0.0812199721       -0.0812117755       -0.0812055847
  C         0.8922464642        0.8922471911        0.8922485363
  C        -0.0805105754        1.8643069222        1.8643034396
  C         2.8363335284        2.8363322876        0.8914654371
  C         1.8643049200       -0.0805101146        1.8643027541
  C         2.8363346813        0.8914700575        2.8363297961
  C         1.8643035614        1.8643002014       -0.0805091358
       8
 i =        8, E =       -44.9391101152
  C         0.8914990673        2.8364752868        2.8364760357
  C        -0.0813096106       -0.0813178637       -0.0813241939
  C         0.8918665713        0.8918657078        0.8918640808
  C        -0.0806063795        1.8641096516        1.8641127862
  C         2.8364749224        2.8364762567        0.8915077689
  C         1.8641114168       -0.0806066456        1.8641141843
  C         2.8364729582        0.8915031951        2.8364784453
  C         1.8641129336        1.8641162212       -0.0806073702
       8
 i =        9, E =       -44.9391101151
  C         0.8914990673        2.8364752868        2.8364760357
  C        -0.0813096106       -0.0813178637       -0.0813241939
  C         0.8918665713        0.8918657078        0.8918640808
  C        -0.0806063795        1.8641096516        1.8641127862
  C         2.8364749224        2.8364762567        0.8915077689
  C         1.8641114168       -0.0806066456        1.8641141843
  C         2.8364729582        0.8915031951        2.8364784453
  C         1.8641129336        1.8641162212       -0.0806073702
