       8
 i =        1, E =       -45.1145341223
  C         0.8759681972        2.7077888417        2.7077891410
  C        -0.0172890698       -0.0173080755       -0.0172921432
  C         0.8934370071        0.8934546508        0.8934435661
  C        -0.0305840575        1.7942145845        1.7942097311
  C         2.7077809697        2.7077957299        0.8759617608
  C         1.7942020327       -0.0305650861        1.7942060012
  C         2.7078026835        0.8759506857        2.7077947058
  C         1.7942136719        1.7942001782       -0.0305813290
       8
 i =        2, E =       -45.1147524484
  C         0.8815840375        2.7108384018        2.7108389830
  C        -0.0234489083       -0.0234561412       -0.0234502868
  C         0.8902649162        0.8902714933        0.8902671943
  C        -0.0298710417        1.7978982202        1.7978961658
  C         2.7108356417        2.7108416920        0.8815814596
  C         1.7978932111       -0.0298630437        1.7978951229
  C         2.7108447121        0.8815775566        2.7108412490
  C         1.7978978384        1.7978925840       -0.0298697779
       8
 i =        3, E =       -45.1147879880
  C         0.8859604542        2.7125262967        2.7125264645
  C        -0.0242881648       -0.0242897941       -0.0242885440
  C         0.8891928566        0.8891940723        0.8891932969
  C        -0.0266488179        1.8001209425        1.8001203265
  C         2.7125256378        2.7125271538        0.8859598918
  C         1.8001199584       -0.0266469205        1.8001202414
  C         2.7125279332        0.8859594854        2.7125270334
  C         1.8001207362        1.8001196938       -0.0266485018
       8
 i =        4, E =       -45.1148603209
  C         0.8983248353        2.7188971453        2.7188960363
  C        -0.0229841821       -0.0229744148       -0.0229821105
  C         0.8891031341        0.8890937615        0.8891000637
  C        -0.0160163541        1.8071815648        1.8071837251
  C         2.7189001703        2.7188924702        0.8983280108
  C         1.8071884264       -0.0160266924        1.8071854553
  C         2.7188892126        0.8983343319        2.7188932122
  C         1.8071812903        1.8071886637       -0.0160183686
       8
 i =        5, E =       -45.1149219852
  C         0.9158557492        2.7305008358        2.7304988570
  C        -0.0163429688       -0.0163229879       -0.0163391471
  C         0.8939817035        0.8939630165        0.8939754122
  C        -0.0000605038        1.8191894474        1.8191939948
  C         2.7305074838        2.7304917780        0.9158621756
  C         1.8192028524       -0.0000819621        1.8191974611
  C         2.7304841325        0.9158740153        2.7304926889
  C         1.8191894636        1.8192040381       -0.0000643606
       8
 i =        6, E =       -45.1150184731
  C         0.9135880733        2.7315030573        2.7315015690
  C        -0.0121278571       -0.0121139151       -0.0121251448
  C         0.8984500385        0.8984370857        0.8984458505
  C        -0.0013848934        1.8197775865        1.8197796938
  C         2.7315070168        2.7314969221        0.9135920654
  C         1.8197862217       -0.0013996615        1.8197828143
  C         2.7314915202        0.9136006426        2.7314968962
  C         1.8197769943        1.8197867311       -0.0013877082
       8
 i =        7, E =       -45.1149914016
  C         0.9209155834        2.7491794578        2.7491794782
  C         0.0160804977        0.0160745435        0.0160793179
  C         0.9271651318        0.9271719125        0.9271676439
  C         0.0085992339        1.8362287704        1.8362241766
  C         2.7491756993        2.7491824656        0.9209123798
  C         1.8362224316        0.0086064228        1.8362248299
  C         2.7491843295        0.9209091533        2.7491804069
  C         1.8362271253        1.8362216477        0.0085998835
       8
 i =        8, E =       -45.1151427164
  C         0.9128321444        2.7381978143        2.7381975158
  C         0.0015471647        0.0015464625        0.0015468399
  C         0.9135940727        0.9135955497        0.9135944007
  C        -0.0000344544        1.8256549932        1.8256543315
  C         2.7381973477        2.7381980125        0.9128317027
  C         1.8256540722       -0.0000332133        1.8256541642
  C         2.7381982323        0.9128312830        2.7381978234
  C         1.8256546995        1.8256542357       -0.0000345016
       8
 i =        9, E =       -45.1151428887
  C         0.9117689566        2.7365308892        2.7365305614
  C        -0.0010458067       -0.0010453997       -0.0010457217
  C         0.9112315077        0.9112313993        0.9112315041
  C        -0.0009703389        1.8240329837        1.8240327762
  C         2.7365307242        2.7365305388        0.9117688105
  C         1.8240331272       -0.0009705426        1.8240328688
  C         2.7365304720        0.9117692960        2.7365305043
  C         1.8240326627        1.8240330066       -0.0009705225
       8
 i =       10, E =       -45.1151445044
  C         0.9126124990        2.7374981027        2.7374979119
  C         0.0000303012        0.0000305449        0.0000302497
  C         0.9123345782        0.9123345837        0.9123345953
  C        -0.0000720704        1.8249894870        1.8249892297
  C         2.7374979937        2.7374980169        0.9126123259
  C         1.8249894616       -0.0000721080        1.8249893757
  C         2.7374978645        0.9126126927        2.7374978508
  C         1.8249892512        1.8249894244       -0.0000721302
       8
 i =       11, E =       -45.1151445677
  C         0.9124585430        2.7375025696        2.7375025634
  C         0.0001247445        0.0001246662        0.0001245260
  C         0.9125443027        0.9125445258        0.9125443844
  C        -0.0001107766        1.8249963804        1.8249962528
  C         2.7375026205        2.7375027592        0.9124583846
  C         1.8249962411       -0.0001105670        1.8249962546
  C         2.7375026016        0.9124584625        2.7375026182
  C         1.8249963281        1.8249963075       -0.0001106505
       8
 i =       12, E =       -45.1151445669
  C         0.9124585430        2.7375025696        2.7375025634
  C         0.0001247445        0.0001246662        0.0001245260
  C         0.9125443027        0.9125445258        0.9125443844
  C        -0.0001107766        1.8249963804        1.8249962528
  C         2.7375026205        2.7375027592        0.9124583846
  C         1.8249962411       -0.0001105670        1.8249962546
  C         2.7375026016        0.9124584625        2.7375026182
  C         1.8249963281        1.8249963075       -0.0001106505
