       8
 i =        1, E =       -45.1135469687
  C         0.8679278529        2.7147913496        2.7147935100
  C        -0.0201748686       -0.0201814878       -0.0201773515
  C         0.8942775756        0.8942812087        0.8942762960
  C        -0.0397051004        1.7952158686        1.7952155589
  C         2.7147899196        2.7147984984        0.8679308341
  C         1.7952134941       -0.0396958809        1.7952207030
  C         2.7148018326        0.8679270372        2.7147970719
  C         1.7952204888        1.7952145771       -0.0397053890
       8
 i =        2, E =       -45.1139996405
  C         0.8770952297        2.7170384642        2.7170387483
  C        -0.0321424632       -0.0321456255       -0.0321421000
  C         0.8873795416        0.8873802884        0.8873792889
  C        -0.0390088567        1.7987949333        1.7987932363
  C         2.7170368899        2.7170408210        0.8770956850
  C         1.7987938516       -0.0390054071        1.7987953496
  C         2.7170425228        0.8770949495        2.7170405877
  C         1.7987952775        1.7987938601       -0.0390085128
       8
 i =        3, E =       -45.1140271526
  C         0.8805616744        2.7171906885        2.7171906933
  C        -0.0344509968       -0.0344519384       -0.0344509151
  C         0.8843846496        0.8843846161        0.8843846943
  C        -0.0366632463        1.7997596065        1.7997591384
  C         2.7171900175        2.7171913398        0.8805616635
  C         1.7997594285       -0.0366621098        1.7997597496
  C         2.7171920138        0.8805618387        2.7171914751
  C         1.7997594734        1.7997593075       -0.0366631975
       8
 i =        4, E =       -45.1140336161
  C         0.8828530958        2.7176946125        2.7176945167
  C        -0.0350903231       -0.0350900949       -0.0350903438
  C         0.8827200674        0.8827198516        0.8827202291
  C        -0.0346033156        1.8003731809        1.8003733232
  C         2.7176945961        2.7176944750        0.8828529955
  C         1.8003733265       -0.0346034699        1.8003731258
  C         2.7176944052        0.8828533575        2.7176945484
  C         1.8003730046        1.8003732808       -0.0346032725
       8
 i =        5, E =       -45.1140354604
  C         0.8836747538        2.7182656281        2.7182655654
  C        -0.0346184237       -0.0346180758       -0.0346184095
  C         0.8828272525        0.8828271514        0.8828273546
  C        -0.0338093754        1.8008326289        1.8008327954
  C         2.7182657026        2.7182654016        0.8836747131
  C         1.8008327055       -0.0338096781        1.8008325327
  C         2.7182652219        0.8836749010        2.7182654202
  C         1.8008325311        1.8008327357       -0.0338093607
       8
 i =        6, E =       -45.1140354599
  C         0.8836747538        2.7182656281        2.7182655654
  C        -0.0346184237       -0.0346180758       -0.0346184095
  C         0.8828272525        0.8828271514        0.8828273546
  C        -0.0338093754        1.8008326289        1.8008327954
  C         2.7182657026        2.7182654016        0.8836747131
  C         1.8008327055       -0.0338096781        1.8008325327
  C         2.7182652219        0.8836749010        2.7182654202
  C         1.8008325311        1.8008327357       -0.0338093607
