       8
 i =        1, E =       -44.8876412499
  C         1.0909026827        2.6321844204        2.5371354396
  C        -0.0011728267       -0.1820012419        0.0408484362
  C         0.8729908103        0.9638350449        0.8592399610
  C         0.0098286764        1.7536031252        1.8878737539
  C         2.5932364512        2.6798970602        1.0612230083
  C         1.7561147445        0.0028513088        1.7760371856
  C         2.5098641989        1.0897481313        2.5118581813
  C         1.8912612810        1.7853853638        0.0491524389
       8
 i =        2, E =       -44.9679743591
  C         1.2309556283        2.5666080398        2.3498975072
  C         0.0395442869       -0.3153744518        0.0582102195
  C         0.8751999047        0.9337993119        0.8829095709
  C        -0.0003900900        1.7193218267        1.8992831192
  C         2.5546672543        2.6499197270        1.1578488066
  C         1.8214379638       -0.0152286705        1.7863559856
  C         2.3551443983        1.3397481313        2.4408180245
  C         1.8452067551        1.8444580830        0.1536507153
       8
 i =        3, E =       -45.0434055637
  C         1.2273092090        2.5724946736        2.2454373621
  C         0.1692064913       -0.5151851368        0.1728757703
  C         0.8906652792        0.8631996183        0.8917556404
  C         0.0252823226        1.8231272659        1.7770012326
  C         2.3931153955        2.6541879492        1.1500662098
  C         1.8556433489        0.0097581472        1.8559061952
  C         2.4268458375        1.4400315074        2.4739957673
  C         1.7366911898        1.8757847111        0.1658969501
       8
 i =        4, E =       -45.0873764030
  C         1.1443386190        2.6567567094        2.1416139227
  C         0.3337806032       -0.7651851368        0.3178008964
  C         0.8966937244        0.7915684339        0.8819785938
  C         0.0466238663        1.9175131375        1.6642783402
  C         2.2539239495        2.6503101604        1.1286785552
  C         1.8982184257        0.0794905933        1.8874684075
  C         2.5504687377        1.4416292755        2.5871010516
  C         1.5880757432        1.9581726667        0.1237384228
       8
 i =        5, E =       -45.1091818351
  C         1.1049012278        2.6782302517        2.2317988797
  C         0.3130442510       -0.6707103426        0.2356195082
  C         0.8811859315        0.7771825385        0.8775930465
  C         0.0393317157        1.8923574798        1.7117704200
  C         2.3345143443        2.6612289081        1.1207261124
  C         1.8410625978        0.0707440600        1.8419517576
  C         2.5670699137        1.3541743592        2.5930904017
  C         1.6237963034        1.9474002524        0.1250971607
       8
 i =        6, E =       -45.1196904939
  C         1.1433960053        2.6989953400        2.2177321912
  C         0.3547155861       -0.7418978657        0.1797854323
  C         0.8633474181        0.7379241275        0.8246721191
  C         0.0600590553        1.8630310048        1.7399974830
  C         2.3314316098        2.6432818643        1.2503426165
  C         1.7743351245        0.1332571730        1.7943826568
  C         2.5647186268        1.3334172995        2.5905018341
  C         1.6241783667        2.0138562398        0.1398315729
       8
 i =        7, E =       -45.1340879465
  C         1.0787009530        2.7312823011        2.2290843731
  C         0.4367563652       -0.7674981421        0.1414568591
  C         0.9057454400        0.6950453806        0.8371860691
  C         0.0477793719        1.8451203089        1.7382148566
  C         2.3459955576        2.6277691537        1.2527758173
  C         1.7706650507        0.1266981821        1.8110934467
  C         2.5685706102        1.3635681149        2.5703427189
  C         1.5957621887        2.0568796142        0.1306556707
       8
 i =        8, E =       -45.1633270544
  C         0.8906305864        2.8237947186        2.2891811317
  C         0.6867563652       -0.7898682271       -0.1076661206
  C         0.9905108697        0.5639459254        0.8263480466
  C        -0.0161292163        1.7623913470        1.7906116114
  C         2.4461248839        2.5491638669        1.2962301602
  C         1.7494080338        0.1135788146        1.8540870065
  C         2.5193023411        1.4912445299        2.4694600824
  C         1.5438061199        2.1835040449        0.1673010482
       8
 i =        9, E =       -45.1608620826
  C         0.7676741680        2.8224757919        2.4125706497
  C         0.7173833675       -0.6163736334       -0.2269482539
  C         1.0592420624        0.5192480586        0.8325085020
  C        -0.0470057476        1.7586028721        1.7742733869
  C         2.5145791551        2.5165965523        1.2706589823
  C         1.7657576728        0.0414524994        1.9080117574
  C         2.4794857763        1.5579977536        2.3487134257
  C         1.6362765816        2.1279548950        0.2144831703
       8
 i =       10, E =       -45.1615673402
  C         0.8712412351        2.7520400987        2.3380729981
  C         0.5811265169       -0.5361252362        0.0230517461
  C         1.0057397567        0.7018343276        0.8198304193
  C        -0.0934886183        1.8164963780        1.7579958247
  C         2.4733769145        2.5731589792        1.1694616928
  C         1.8288931707        0.0257264475        1.8393345830
  C         2.4836448468        1.4061607245        2.4416046643
  C         1.7181113035        2.0122662055        0.1982473805
       8
 i =       11, E =       -45.2373923574
  C         0.8199916872        2.8591097587        2.3875952540
  C         0.7184679479       -0.6299640134       -0.0379305529
  C         1.0038342209        0.6533573357        0.7064935188
  C        -0.0463426153        1.7982902584        1.8016499718
  C         2.5261278777        2.5193838926        1.3106814051
  C         1.7683018781        0.0542289949        1.7734091710
  C         2.4690309395        1.3737916318        2.4469069103
  C         1.6849055798        2.1110647527        0.2157717657
       8
 i =       12, E =       -45.2401947675
  C         0.7733292771        2.9009868862        2.4151553534
  C         0.9684679479       -0.6904094116       -0.1668611719
  C         1.0072300000        0.6105804668        0.6678725337
  C        -0.1187816408        1.8340336675        1.8282205746
  C         2.5140636206        2.5117927847        1.3367479427
  C         1.7585735551        0.0702576309        1.8085552036
  C         2.4707165909        1.4083686308        2.4317129722
  C         1.6593138823        2.1121640729        0.2428936245
       8
 i =       13, E =       -45.2614109038
  C         0.7932714205        2.8992099694        2.3924631974
  C         0.8925573965       -0.6361621692       -0.1077130118
  C         1.0344981137        0.6106540124        0.6588812810
  C        -0.0991565202        1.8523961441        1.8178780583
  C         2.4843485297        2.5028252579        1.3555672542
  C         1.7822825965        0.0691327585        1.8181798464
  C         2.4831691773        1.4119655844        2.4229173630
  C         1.6777931710        2.0582720736        0.2266134401
       8
 i =       14, E =       -45.2685593813
  C         0.8169311889        2.8979527297        2.3960830957
  C         0.8993717566       -0.6236999857       -0.1113176123
  C         1.0534367246        0.6038802066        0.6386147206
  C        -0.1110383481        1.8799434468        1.8575666269
  C         2.5054282555        2.5230674478        1.3508520341
  C         1.7919233906        0.0594105235        1.8019474675
  C         2.4676468032        1.3763728831        2.4579703188
  C         1.6983681413        2.0401037898        0.2507357726
       8
 i =       15, E =       -45.2799624008
  C         0.8321549225        2.9048534521        2.4006740686
  C         0.9375443948       -0.6259781105       -0.1048591007
  C         1.1323921901        0.5696409130        0.5620716716
  C        -0.1417682888        1.9345495616        1.9514103109
  C         2.5315244799        2.5115979211        1.3965702005
  C         1.8286411343        0.0530978202        1.7938795928
  C         2.4565229418        1.3703289953        2.5020886602
  C         1.7398269083        2.0060574011        0.2634747738
       8
 i =       16, E =       -45.2903606842
  C         0.8812697268        2.8905603313        2.4045650204
  C         1.0030450547       -0.6758307881       -0.1212818497
  C         1.2085521599        0.5289369619        0.5147098583
  C        -0.2153343411        2.0753495001        2.0829848153
  C         2.5313667759        2.5135572071        1.4143544785
  C         1.8679833545        0.0646651437        1.7958048463
  C         2.4629148330        1.3995934796        2.5542372684
  C         1.7717952864        1.9315970730        0.2726483436
       8
 i =       17, E =       -45.2989244960
  C         0.8253218685        2.8919041796        2.4031404128
  C         1.0402274723       -0.6913309794       -0.1279299713
  C         1.2576675686        0.5048917807        0.5192004800
  C        -0.2426022316        2.0809510003        2.1023899656
  C         2.5441238170        2.5103848303        1.4101648446
  C         1.8545631820        0.0482453572        1.8115552925
  C         2.4633487026        1.4234479717        2.5403576475
  C         1.7827677773        1.9507683616        0.2522160350
       8
 i =       18, E =       -45.3057182377
  C         0.7704827056        2.9475050002        2.4378772497
  C         1.0407716869       -0.7575607065       -0.1104676954
  C         1.3091660925        0.4344460571        0.5431492044
  C        -0.2211956720        2.1320817142        2.1316722051
  C         2.5165337269        2.4741937310        1.3771882524
  C         1.8561961680        0.0178592144        1.8189357693
  C         2.4738096059        1.4775005999        2.5161927173
  C         1.7647115829        1.9449854541        0.2003646217
       8
 i =       19, E =       -45.3149083449
  C         0.7303133697        2.9951579796        2.4576058749
  C         1.0837346406       -0.7972106564       -0.0929673750
  C         1.3836870291        0.3821865223        0.5282874759
  C        -0.2762790085        2.2109879892        2.1581093266
  C         2.5049616874        2.4707108515        1.3890090170
  C         1.8667265277        0.0129150072        1.8370942669
  C         2.5077346111        1.4860923742        2.5505674686
  C         1.7997741735        1.9081957538        0.1705473886
       8
 i =       20, E =       -45.3263220882
  C         0.7065481766        3.0952673432        2.4832346061
  C         1.1019529701       -0.8424606848       -0.0654508391
  C         1.4401842353        0.3552284065        0.5425840104
  C        -0.3176353016        2.3097997432        2.1302858887
  C         2.4634055888        2.4639025668        1.4252319663
  C         1.8568124946        0.0134439411        1.8672251245
  C         2.5579939329        1.4781624332        2.6176311020
  C         1.8531821624        1.8480320658        0.1120838169
       8
 i =       21, E =       -45.3272752873
  C         0.6764691670        3.1951712514        2.5122616071
  C         1.1448605759       -0.9129737955       -0.0764156546
  C         1.5134405204        0.2992185217        0.5284964024
  C        -0.3213863045        2.4361997913        2.1429388666
  C         2.3985451126        2.4491027678        1.4679868443
  C         1.8455690428        0.0230450796        1.9121560659
  C         2.6105331595        1.5108606499        2.6883273728
  C         1.9044447396        1.7740160012        0.0532219752
       8
 i =       22, E =       -45.3326901093
  C         0.7131976843        3.1545550904        2.5048802573
  C         1.1383265126       -0.8696490031       -0.0991042817
  C         1.4513841874        0.3479304962        0.5422564013
  C        -0.2935448003        2.3679461885        2.1323883607
  C         2.4188453783        2.4483287034        1.4582244176
  C         1.8469794306        0.0299485996        1.8738046892
  C         2.5864541952        1.5016390927        2.6436332518
  C         1.8769616967        1.7983043879        0.0988787029
       8
 i =       23, E =       -45.3336243357
  C         0.6878064340        3.1733484092        2.5080552473
  C         1.1711167436       -0.8684307778       -0.0957958677
  C         1.4778068048        0.3564540164        0.5434056254
  C        -0.3025602050        2.3707993594        2.1466425190
  C         2.4249173269        2.4405948006        1.4632564277
  C         1.8558154184        0.0144585652        1.8691079839
  C         2.5713931671        1.5140122492        2.6439917740
  C         1.8879998485        1.8046409479        0.0991914164
       8
 i =       24, E =       -45.3344430572
  C         0.6893499094        3.1729223666        2.5162741606
  C         1.1920952895       -0.8582798467       -0.1098820552
  C         1.5000476420        0.3600261646        0.5378233004
  C        -0.3000020581        2.3733286667        2.1519387147
  C         2.4223916552        2.4501511145        1.4748425918
  C         1.8536050993        0.0079779729        1.8852887567
  C         2.5751640630        1.5181144328        2.6644852319
  C         1.8996195886        1.8099912615        0.0995812279
       8
 i =       25, E =       -45.3349066053
  C         0.6979453775        3.1876751001        2.5270351410
  C         1.2113434241       -0.8509668379       -0.1123381307
  C         1.5145192854        0.3649606861        0.5495710335
  C        -0.2960554634        2.3888081410        2.1685411651
  C         2.4150013500        2.4445320921        1.4862180473
  C         1.8587188160        0.0042959771        1.8826273798
  C         2.5933724203        1.5214127514        2.6754007585
  C         1.9067477147        1.8014829088        0.0957899352
       8
 i =       26, E =       -45.3353018520
  C         0.7032622179        3.1799636924        2.5322623184
  C         1.2154258891       -0.8470815216       -0.1086945979
  C         1.5157126512        0.3740161733        0.5548518686
  C        -0.2875368349        2.3840957295        2.1699658828
  C         2.4214387594        2.4491486895        1.4927924973
  C         1.8650205143       -0.0011948770        1.8816731400
  C         2.6048544017        1.5264696980        2.6767589429
  C         1.9116281726        1.8059815865        0.1063061400
       8
 i =       27, E =       -45.3356263635
  C         0.7125126830        3.1821221274        2.5391711889
  C         1.2298296962       -0.8417492998       -0.1036181024
  C         1.5285208776        0.3789713949        0.5614983515
  C        -0.2745166295        2.3798225656        2.1763275648
  C         2.4347781409        2.4523383444        1.5021846344
  C         1.8804662245       -0.0119554129        1.8823428818
  C         2.6265670737        1.5356577439        2.6890227888
  C         1.9239803290        1.8109528154        0.1197783149
       8
 i =       28, E =       -45.3358376656
  C         0.7242025823        3.1835107791        2.5434594268
  C         1.2391150364       -0.8421195089       -0.0977383351
  C         1.5366489990        0.3779398906        0.5631459456
  C        -0.2584648383        2.3837037714        2.1789507366
  C         2.4507967241        2.4491415144        1.5083760236
  C         1.8905169084       -0.0213467443        1.8813205731
  C         2.6495064002        1.5380840187        2.6981667613
  C         1.9379530876        1.8104628221        0.1305781107
       8
 i =       29, E =       -45.3359735650
  C         0.7329641666        3.1834056691        2.5394222414
  C         1.2416050840       -0.8485506245       -0.0965968950
  C         1.5377221398        0.3698866260        0.5620258333
  C        -0.2505998032        2.3814878436        2.1790250826
  C         2.4611457601        2.4411639816        1.5063324226
  C         1.8946172766       -0.0256214313        1.8809078482
  C         2.6593423123        1.5353297467        2.7031019109
  C         1.9457227667        1.8072180658        0.1343617346
       8
 i =       30, E =       -45.3360459599
  C         0.7347804516        3.1802968161        2.5373673949
  C         1.2441920290       -0.8561839504       -0.0977017620
  C         1.5404746220        0.3612810089        0.5602829664
  C        -0.2504649441        2.3812261905        2.1810604618
  C         2.4633313876        2.4306994087        1.5031096912
  C         1.8948571405       -0.0309666768        1.8808557788
  C         2.6595880010        1.5305023368        2.7036551630
  C         1.9499552598        1.8007942118        0.1327090096
       8
 i =       31, E =       -45.3361014608
  C         0.7366728109        3.1748230378        2.5358035519
  C         1.2450836162       -0.8660298329       -0.0988394792
  C         1.5412944246        0.3516678447        0.5603830882
  C        -0.2498344511        2.3758940830        2.1794878896
  C         2.4618157086        2.4185286360        1.5014158292
  C         1.8958404723       -0.0384752754        1.8814262277
  C         2.6640660461        1.5236955940        2.7040460964
  C         1.9528741802        1.7928189410        0.1310415448
       8
 i =       32, E =       -45.3361506531
  C         0.7361389880        3.1662088953        2.5360143735
  C         1.2452580035       -0.8759195162       -0.1000641212
  C         1.5426443583        0.3404247684        0.5600614232
  C        -0.2515474127        2.3689312354        2.1791018122
  C         2.4600249838        2.4054839808        1.4999549120
  C         1.8974507395       -0.0504119257        1.8800929318
  C         2.6641434291        1.5153482555        2.7036396709
  C         1.9536944506        1.7827142860        0.1309391956
       8
 i =       33, E =       -45.3361820561
  C         0.7340522654        3.1609201735        2.5368839457
  C         1.2453203946       -0.8826619474       -0.1005751824
  C         1.5428182244        0.3330631423        0.5604536119
  C        -0.2536109636        2.3642313699        2.1789824802
  C         2.4567290839        2.3991464137        1.5024351110
  C         1.8968742224       -0.0587461047        1.8802283382
  C         2.6643577887        1.5099193736        2.7042518339
  C         1.9515523248        1.7749537387        0.1320516619
       8
 i =       34, E =       -45.3361969429
  C         0.7315514683        3.1587266059        2.5375538254
  C         1.2421994492       -0.8846257222       -0.1003191767
  C         1.5409847409        0.3300501758        0.5604998874
  C        -0.2556009598        2.3609738603        2.1798852060
  C         2.4545956055        2.3970176192        1.5046253715
  C         1.8954875349       -0.0617790435        1.8797929785
  C         2.6617428829        1.5076035787        2.7058575277
  C         1.9470633629        1.7713466915        0.1328689394
       8
 i =       35, E =       -45.3362012582
  C         0.7311548231        3.1587609074        2.5382379818
  C         1.2422217203       -0.8861436108       -0.0995353570
  C         1.5408553907        0.3284983850        0.5611123416
  C        -0.2559167233        2.3612256461        2.1812013400
  C         2.4544847451        2.3959913982        1.5060422451
  C         1.8943476893       -0.0634787861        1.8804688860
  C         2.6619001333        1.5073293156        2.7076751324
  C         1.9459616201        1.7695064272        0.1335992157
       8
 i =       36, E =       -45.3362022631
  C         0.7309634848        3.1591192155        2.5383857631
  C         1.2414977048       -0.8861493256       -0.0992268465
  C         1.5402786182        0.3282733132        0.5612236929
  C        -0.2560456871        2.3612922126        2.1816955090
  C         2.4546156954        2.3956964365        1.5061947403
  C         1.8937329707       -0.0632620860        1.8805856917
  C         2.6614843116        1.5077459854        2.7083270429
  C         1.9453518997        1.7697174378        0.1336138050
       8
 i =       37, E =       -45.3362022624
  C         0.7309634848        3.1591192155        2.5383857631
  C         1.2414977048       -0.8861493256       -0.0992268465
  C         1.5402786182        0.3282733132        0.5612236929
  C        -0.2560456871        2.3612922126        2.1816955090
  C         2.4546156954        2.3956964365        1.5061947403
  C         1.8937329707       -0.0632620860        1.8805856917
  C         2.6614843116        1.5077459854        2.7083270429
  C         1.9453518997        1.7697174378        0.1336138050
