       8
 i =        1, E =       -44.9573858541
  C         0.7997852783        2.7662995900        2.7663079503
  C        -0.0310375329       -0.0310449942       -0.0310209231
  C         0.9015594920        0.9015626880        0.9015445392
  C        -0.0923682188        1.8036528145        1.8036365959
  C         2.7662743723        2.7662920822        0.7998126237
  C         1.8036318258       -0.0923728256        1.8036578939
  C         2.7663186110        0.7997932808        2.7662836202
  C         1.8036592805        1.8036400742       -0.0923989948
       8
 i =        2, E =       -44.9664158289
  C         0.8791721651        2.7759503842        2.7759516548
  C        -0.1129477542       -0.1129446642       -0.1129467947
  C         0.8515875901        0.8515883300        0.8515897823
  C        -0.0702037261        1.8161804039        1.8161927403
  C         2.7759569731        2.7759526037        0.8791762665
  C         1.8161875342       -0.0702023257        1.8161882407
  C         2.7759485726        0.8791738243        2.7759564522
  C         1.8161851136        1.8161928381       -0.0701970310
       8
 i =        3, E =       -44.9685690881
  C         0.8684310283        2.7652011150        2.7652037111
  C        -0.0852546382       -0.0852545682       -0.0852520308
  C         0.8710510505        0.8710523966        0.8710545854
  C        -0.0793724211        1.8160219686        1.8160224959
  C         2.7652002787        2.7652023407        0.8684323718
  C         1.8160210647       -0.0793716751        1.8160231730
  C         2.7652025846        0.8684312931        2.7652025631
  C         1.8160209298        1.8160209454       -0.0793699091
       8
 i =        4, E =       -44.9686573935
  C         0.8667239453        2.7686168511        2.7686177662
  C        -0.0823978074       -0.0823970174       -0.0823971692
  C         0.8712580533        0.8712583867        0.8712595282
  C        -0.0798146370        1.8185537037        1.8185561656
  C         2.7686172866        2.7686169616        0.8667249957
  C         1.8185547531       -0.0798145915        1.8185551275
  C         2.7686159960        0.8667241308        2.7686181621
  C         1.8185540298        1.8185555150       -0.0798129483
       8
 i =        5, E =       -44.9686849337
  C         0.8692948043        2.7703175498        2.7703180193
  C        -0.0806456043       -0.0806458359       -0.0806445338
  C         0.8709953674        0.8709955143        0.8709956225
  C        -0.0791687665        1.8205353966        1.8205345616
  C         2.7703164410        2.7703174192        0.8692952491
  C         1.8205344773       -0.0791687355        1.8205354234
  C         2.7703180607        0.8692947736        2.7703173318
  C         1.8205350225        1.8205343935       -0.0791690753
       8
 i =        6, E =       -44.9686905407
  C         0.8708208650        2.7709766716        2.7709763120
  C        -0.0792225453       -0.0792220249       -0.0792237333
  C         0.8710716063        0.8710714547        0.8710714999
  C        -0.0789154660        1.8211490592        1.8211507161
  C         2.7709778904        2.7709765665        0.8708205631
  C         1.8211502599       -0.0789156213        1.8211495562
  C         2.7709755436        0.8708208778        2.7709771425
  C         1.8211497160        1.8211507319       -0.0789149244
       8
 i =        7, E =       -44.9686908663
  C         0.8709470040        2.7709582672        2.7709582651
  C        -0.0790824156       -0.0790829584       -0.0790813651
  C         0.8710057584        0.8710058191        0.8710056413
  C        -0.0789962237        1.8210044907        1.8210027604
  C         2.7709570894        2.7709581363        0.8709470920
  C         1.8210034166       -0.0789960510        1.8210039136
  C         2.7709591928        0.8709469381        2.7709576738
  C         1.8210039030        1.8210029414       -0.0789968992
       8
 i =        8, E =       -44.9686908655
  C         0.8709470040        2.7709582672        2.7709582651
  C        -0.0790824156       -0.0790829584       -0.0790813651
  C         0.8710057584        0.8710058191        0.8710056413
  C        -0.0789962237        1.8210044907        1.8210027604
  C         2.7709570894        2.7709581363        0.8709470920
  C         1.8210034166       -0.0789960510        1.8210039136
  C         2.7709591928        0.8709469381        2.7709576738
  C         1.8210039030        1.8210029414       -0.0789968992
