       8
 i =        1, E =       -44.9528148777
  C         0.7916818655        2.7688838189        2.7688858081
  C        -0.0311973204       -0.0312143686       -0.0312547088
  C         0.9021888237        0.9022011933        0.9022283827
  C        -0.0974008896        1.8029674655        1.8029792187
  C         2.7689366036        2.7689371104        0.7916335514
  C         1.8029916521       -0.0973674146        1.8029617588
  C         2.7688827939        0.7916632452        2.7689375156
  C         1.8029621149        1.8029737648       -0.0973273848
       8
 i =        2, E =       -44.9633665482
  C         0.8750829967        2.7809196272        2.7809150805
  C        -0.1199013525       -0.1199007514       -0.1198989573
  C         0.8484150932        0.8484154760        0.8484127879
  C        -0.0745809408        1.8164830977        1.8164686732
  C         2.7809121601        2.7809110283        0.8750752406
  C         1.8164808016       -0.0745866113        1.8164664428
  C         2.7809204191        0.8750803775        2.7809070851
  C         1.8164783078        1.8164643809       -0.0745927603
       8
 i =        3, E =       -44.9659689631
  C         0.8683698492        2.7684698483        2.7684668690
  C        -0.0902729232       -0.0902750899       -0.0902793552
  C         0.8696230830        0.8696209339        0.8696164775
  C        -0.0822651568        1.8172259641        1.8172244295
  C         2.7684732147        2.7684709804        0.8683673752
  C         1.8172280768       -0.0822671325        1.8172243888
  C         2.7684706907        0.8683684102        2.7684692049
  C         1.8172284801        1.8172276743       -0.0822696348
       8
 i =        4, E =       -44.9661346223
  C         0.8663919255        2.7737047580        2.7737028244
  C        -0.0843250428       -0.0843250501       -0.0843247814
  C         0.8722492370        0.8722480119        0.8722457652
  C        -0.0820021807        1.8213092491        1.8213058317
  C         2.7737039842        2.7737029391        0.8663900157
  C         1.8213087174       -0.0820044576        1.8213063911
  C         2.7737059764        0.8663913087        2.7737012371
  C         1.8213086317        1.8213063746       -0.0820070975
       8
 i =        5, E =       -44.9661930141
  C         0.8708602851        2.7772798533        2.7772797539
  C        -0.0810769785       -0.0810782869       -0.0810808670
  C         0.8731708165        0.8731707416        0.8731705429
  C        -0.0798392558        1.8250555641        1.8250567533
  C         2.7772825767        2.7772821751        0.8708589515
  C         1.8250566836       -0.0798385913        1.8250562001
  C         2.7772799823        0.8708596487        2.7772818616
  C         1.8250561965        1.8250573288       -0.0798377798
       8
 i =        6, E =       -44.9662009986
  C         0.8730967379        2.7783159460        2.7783156145
  C        -0.0794362871       -0.0794346382       -0.0794314321
  C         0.8735598288        0.8735597226        0.8735596220
  C        -0.0789885189        1.8260192132        1.8260169460
  C         2.7783129388        2.7783132037        0.8730977553
  C         1.8260180370       -0.0789894741        1.8260174381
  C         2.7783163125        0.8730973088        2.7783129915
  C         1.8260180025        1.8260161849       -0.0789908253
       8
 i =        7, E =       -44.9662015220
  C         0.8732728357        2.7782926406        2.7782933474
  C        -0.0793017126       -0.0793033731       -0.0793064758
  C         0.8734214665        0.8734216550        0.8734218779
  C        -0.0790788793        1.8258494716        1.8258518133
  C         2.7782955744        2.7782955914        0.8732722387
  C         1.8258504371       -0.0790778473        1.8258513422
  C         2.7782923136        0.8732724611        2.7782956995
  C         1.8258505059        1.8258523088       -0.0790763601
       8
 i =        8, E =       -44.9662015212
  C         0.8732728357        2.7782926406        2.7782933474
  C        -0.0793017126       -0.0793033731       -0.0793064758
  C         0.8734214665        0.8734216550        0.8734218779
  C        -0.0790788793        1.8258494716        1.8258518133
  C         2.7782955744        2.7782955914        0.8732722387
  C         1.8258504371       -0.0790778473        1.8258513422
  C         2.7782923136        0.8732724611        2.7782956995
  C         1.8258505059        1.8258523088       -0.0790763601
