       8
 i =        1, E =       -44.9779726036
  C         0.8459882555        2.7320163425        2.7320146686
  C        -0.0252644705       -0.0252702162       -0.0252604425
  C         0.8957659081        0.8957674629        0.8957666771
  C        -0.0593132727        1.7974206706        1.7974127890
  C         2.7320068767        2.7320163583        0.8459876443
  C         1.7974166805       -0.0593067273        1.7974209338
  C         2.7320257621        0.8459865404        2.7320173308
  C         1.7974165854        1.7974117814       -0.0593172476
       8
 i =        2, E =       -44.9800960637
  C         0.8727037993        2.7266468874        2.7266473419
  C        -0.0593027601       -0.0593019832       -0.0593033467
  C         0.8731325787        0.8731328365        0.8731323632
  C        -0.0553664119        1.7974711748        1.7974740915
  C         2.7266481295        2.7266471591        0.8727040054
  C         1.7974724126       -0.0553670443        1.7974726010
  C         2.7266463008        0.8727038747        2.7266473265
  C         1.7974731315        1.7974729623       -0.0553661316
       8
 i =        3, E =       -44.9805096983
  C         0.8663738475        2.7190461036        2.7190464798
  C        -0.0670339490       -0.0670336554       -0.0670340529
  C         0.8635150214        0.8635148452        0.8635151381
  C        -0.0622780399        1.7918063107        1.7918071816
  C         2.7190468994        2.7190461495        0.8663739720
  C         1.7918067408       -0.0622788516        1.7918064098
  C         2.7190456427        0.8663738220        2.7190463229
  C         1.7918067741        1.7918071379       -0.0622776299
       8
 i =        4, E =       -44.9807769168
  C         0.8440960467        2.6987576571        2.6987578713
  C        -0.0824462305       -0.0824461197       -0.0824464704
  C         0.8430494159        0.8430491894        0.8430495146
  C        -0.0841318525        1.7729533170        1.7729531481
  C         2.6987580404        2.6987577082        0.8440960228
  C         1.7729531138       -0.0841321421        1.7729530542
  C         2.6987572519        0.8440959866        2.6987574994
  C         1.7729531935        1.7729532347       -0.0841315287
       8
 i =        5, E =       -44.9808617800
  C         0.8507896749        2.7056606520        2.7056606452
  C        -0.0766569822       -0.0766571835       -0.0766568291
  C         0.8504692604        0.8504691771        0.8504693027
  C        -0.0769545929        1.7784666194        1.7784663951
  C         2.7056605153        2.7056605797        0.8507897266
  C         1.7784665245       -0.0769545683        1.7784665401
  C         2.7056607599        0.8507895954        2.7056606762
  C         1.7784664710        1.7784664528       -0.0769545708
       8
 i =        6, E =       -44.9808628958
  C         0.8504252294        2.7053104684        2.7053105373
  C        -0.0771553504       -0.0771553254       -0.0771553825
  C         0.8501099117        0.8501098632        0.8501099234
  C        -0.0772696023        1.7778808796        1.7778809506
  C         2.7053105658        2.7053104737        0.8504252517
  C         1.7778809074       -0.0772696513        1.7778809169
  C         2.7053104248        0.8504252196        2.7053104992
  C         1.7778809274        1.7778809131       -0.0772695383
       8
 i =        7, E =       -44.9808628956
  C         0.8504252294        2.7053104684        2.7053105373
  C        -0.0771553504       -0.0771553254       -0.0771553825
  C         0.8501099117        0.8501098632        0.8501099234
  C        -0.0772696023        1.7778808796        1.7778809506
  C         2.7053105658        2.7053104737        0.8504252517
  C         1.7778809074       -0.0772696513        1.7778809169
  C         2.7053104248        0.8504252196        2.7053104992
  C         1.7778809274        1.7778809131       -0.0772695383
