       8
 i =        1, E =       -44.9559031005
  C         0.8929471926        2.6779260940        2.6779233365
  C         0.0005320921        0.0005261379        0.0005308436
  C         0.8929548794        0.8929597778        0.8929612830
  C         0.0005186934        1.7854786861        1.7854754424
  C         2.6779230588        2.6779243910        0.8929425169
  C         1.7854781705        0.0005240914        1.7854750874
  C         2.6779305361        0.8929451695        2.6779285928
  C         1.7854719774        1.7854719999        0.0005195989
       8
 i =        2, E =       -44.9559038012
  C         0.8926255607        2.6776005675        2.6776007512
  C         0.0001343652        0.0001346179        0.0001345119
  C         0.8926270492        0.8926268841        0.8926268430
  C         0.0001352277        1.7851097420        1.7851096942
  C         2.6776006451        2.6776007316        0.8926256617
  C         1.7851097971        0.0001349759        1.7851098431
  C         2.6776005180        0.8926255407        2.6776005219
  C         1.7851097468        1.7851097487        0.0001351068
       8
 i =        3, E =       -44.9559038012
  C         0.8926255607        2.6776005675        2.6776007512
  C         0.0001343652        0.0001346179        0.0001345119
  C         0.8926270492        0.8926268841        0.8926268430
  C         0.0001352277        1.7851097420        1.7851096942
  C         2.6776006451        2.6776007316        0.8926256617
  C         1.7851097971        0.0001349759        1.7851098431
  C         2.6776005180        0.8926255407        2.6776005219
  C         1.7851097468        1.7851097487        0.0001351068
