       8
 i =        1, E =       -44.9187162680
  C         0.8924013072        2.6542597986        2.6542643591
  C         0.0333571352        0.0333586479        0.0333569451
  C         0.9064290269        0.9064233275        0.9064332815
  C         0.0206771193        1.7782506272        1.7782378076
  C         2.6542563722        2.6542632560        0.8923967446
  C         1.7782474729        0.0206747217        1.7782507168
  C         2.6542667350        0.8924070474        2.6542593526
  C         1.7782411353        1.7782387725        0.0206771334
       8
 i =        2, E =       -44.9189146549
  C         0.8906761501        2.6497628626        2.6497656086
  C         0.0340221099        0.0340232957        0.0340226549
  C         0.9093650519        0.9093587460        0.9093700454
  C         0.0162839470        1.7744830513        1.7744705134
  C         2.6497575667        2.6497644761        0.8906710508
  C         1.7744815772        0.0162828130        1.7744841102
  C         2.6497701373        0.8906825484        2.6497625046
  C         1.7744723481        1.7744702454        0.0162833424
       8
 i =        3, E =       -44.9191192929
  C         0.8813450254        2.6419648035        2.6419633875
  C         0.0347007448        0.0347003307        0.0347033089
  C         0.9114942960        0.9114866552        0.9115010297
  C         0.0042040026        1.7676741431        1.7676617103
  C         2.6419550945        2.6419616184        0.8813387834
  C         1.7676760660        0.0042046196        1.7676762265
  C         2.6419723372        0.8813524119        2.6419648061
  C         1.7676599863        1.7676596606        0.0042019712
       8
 i =        4, E =       -44.9184232989
  C         0.8392505197        2.6133415505        2.6133273438
  C         0.0361743226        0.0361675383        0.0361844381
  C         0.9161154247        0.9161039525        0.9161279109
  C        -0.0450310550        1.7410100148        1.7410030731
  C         2.6133201679        2.6133221226        0.8392424457
  C         1.7410243877       -0.0450272804        1.7410163937
  C         2.6133475174        0.8392584272        2.6133437379
  C         1.7409876450        1.7409936338       -0.0450353609
       8
 i =        5, E =       -44.9193147406
  C         0.8622826992        2.6314489564        2.6314421161
  C         0.0350771322        0.0350745107        0.0350823071
  C         0.9127676925        0.9127592963        0.9127757280
  C        -0.0172335879        1.7572162154        1.7572063272
  C         2.6314351795        2.6314396835        0.8622755672
  C         1.7572227283       -0.0172321894        1.7572194857
  C         2.6314548595        0.8622904069        2.6314489925
  C         1.7571993895        1.7572019483       -0.0172365070
       8
 i =        6, E =       -44.9193303381
  C         0.8703311240        2.6383478279        2.6383487762
  C         0.0349950097        0.0349948817        0.0349972841
  C         0.9109235469        0.9109173751        0.9109289901
  C        -0.0058866936        1.7633628319        1.7633570155
  C         2.6383442272        2.6383465974        0.8703283202
  C         1.7633646618       -0.0058893572        1.7633651472
  C         2.6383513926        0.8703350232        2.6383482063
  C         1.7633550372        1.7633546221       -0.0058855239
       8
 i =        7, E =       -44.9193843552
  C         0.8639800789        2.6348407623        2.6348408865
  C         0.0349869314        0.0349866662        0.0349894922
  C         0.9113755030        0.9113697142        0.9113805625
  C        -0.0129797770        1.7597822709        1.7597782908
  C         2.6348371072        2.6348382712        0.8639774464
  C         1.7597852793       -0.0129821503        1.7597850934
  C         2.6348434782        0.8639837980        2.6348414588
  C         1.7597750534        1.7597752862       -0.0129789498
       8
 i =        8, E =       -44.9193939407
  C         0.8611871341        2.6339640447        2.6339654993
  C         0.0347518870        0.0347525274        0.0347538571
  C         0.9111167922        0.9111120907        0.9111205900
  C        -0.0153794105        1.7586066570        1.7586051430
  C         2.6339628427        2.6339623293        0.8611857792
  C         1.7586092510       -0.0153823793        1.7586093485
  C         2.6339654227        0.8611897925        2.6339650069
  C         1.7586023021        1.7586024075       -0.0153783506
       8
 i =        9, E =       -44.9193954008
  C         0.8606318755        2.6340355289        2.6340374835
  C         0.0344514259        0.0344528797        0.0344528685
  C         0.9107944381        0.9107905789        0.9107971214
  C        -0.0155681773        1.7585096450        1.7585091685
  C         2.6340356245        2.6340344358        0.8606312831
  C         1.7585116342       -0.0155713560        1.7585118958
  C         2.6340359892        0.8606340813        2.6340361848
  C         1.7585070290        1.7585071449       -0.0155672027
       8
 i =       10, E =       -44.9193953999
  C         0.8606318755        2.6340355289        2.6340374835
  C         0.0344514259        0.0344528797        0.0344528685
  C         0.9107944381        0.9107905789        0.9107971214
  C        -0.0155681773        1.7585096450        1.7585091685
  C         2.6340356245        2.6340344358        0.8606312831
  C         1.7585116342       -0.0155713560        1.7585118958
  C         2.6340359892        0.8606340813        2.6340361848
  C         1.7585070290        1.7585071449       -0.0155672027
