       8
 i =        1, E =       -44.9478323803
  C         0.7834430901        2.7713870244        2.7713961090
  C        -0.0313283989       -0.0313370421       -0.0313185853
  C         0.9028518284        0.9028580268        0.9028449364
  C        -0.1022593866        1.8022262879        1.8022072087
  C         2.7713631304        2.7713899526        0.7834563840
  C         1.8022037976       -0.1022544516        1.8022296773
  C         2.7714141561        0.7834430192        2.7713805393
  C         1.8022279638        1.8022026872       -0.1022801320
       8
 i =        2, E =       -44.9599751735
  C         0.8702206201        2.7857077018        2.7857082809
  C        -0.1269636612       -0.1269613600       -0.1269623148
  C         0.8450998563        0.8451002466        0.8450995362
  C        -0.0794609946        1.8163567850        1.8163691454
  C         2.7857114823        2.7857086620        0.8702231677
  C         1.8163629458       -0.0794623473        1.8163636985
  C         2.7857074692        0.8702215016        2.7857117585
  C         1.8163626632        1.8163659964       -0.0794587102
       8
 i =        3, E =       -44.9630753687
  C         0.8684506985        2.7713200474        2.7713224178
  C        -0.0960183028       -0.0960187018       -0.0960171183
  C         0.8675353986        0.8675358686        0.8675371574
  C        -0.0853240365        1.8180708048        1.8180717054
  C         2.7713196239        2.7713214059        0.8684517129
  C         1.8180702761       -0.0853249704        1.8180716341
  C         2.7713224568        0.8684507123        2.7713219994
  C         1.8180706500        1.8180700545       -0.0853229770
       8
 i =        4, E =       -44.9633750630
  C         0.8658028357        2.7783672352        2.7783677288
  C        -0.0862245757       -0.0862237797       -0.0862241084
  C         0.8731932244        0.8731929446        0.8731941890
  C        -0.0844619179        1.8238040876        1.8238065014
  C         2.7783682121        2.7783671826        0.8658031987
  C         1.8238055510       -0.0844629079        1.8238046818
  C         2.7783666781        0.8658028929        2.7783686824
  C         1.8238043639        1.8238058143       -0.0844605303
       8
 i =        5, E =       -44.9634891133
  C         0.8722490948        2.7841667272        2.7841674088
  C        -0.0814395679       -0.0814402674       -0.0814388691
  C         0.8754666753        0.8754667191        0.8754667157
  C        -0.0805727301        1.8295441649        1.8295424565
  C         2.7841655334        2.7841671089        0.8722496782
  C         1.8295425248       -0.0805726022        1.8295438748
  C         2.7841680123        0.8722489472        2.7841666487
  C         1.8295437974        1.8295424200       -0.0805731917
       8
 i =        6, E =       -44.9635015474
  C         0.8753424764        2.7856094511        2.7856086874
  C        -0.0797053837       -0.0797043729       -0.0797061204
  C         0.8759923388        0.8759920616        0.8759924182
  C        -0.0791095545        1.8308583580        1.8308606538
  C         2.7856107463        2.7856087495        0.8753419928
  C         1.8308601422       -0.0791098767        1.8308587822
  C         2.7856077094        0.8753426934        2.7856097250
  C         1.8308588949        1.8308603838       -0.0791089051
       8
 i =        7, E =       -44.9635023385
  C         0.8755649746        2.7855971374        2.7855975665
  C        -0.0795703351       -0.0795713619       -0.0795695668
  C         0.8757977896        0.8757979423        0.8757976279
  C        -0.0791909513        1.8306723299        1.8306701166
  C         2.7855958750        2.7855976240        0.8755653560
  C         1.8306706268       -0.0791905121        1.8306718665
  C         2.7855986058        0.8755648304        2.7855968355
  C         1.8306718134        1.8306704594       -0.0791915575
       8
 i =        8, E =       -44.9635023376
  C         0.8755649746        2.7855971374        2.7855975665
  C        -0.0795703351       -0.0795713619       -0.0795695668
  C         0.8757977896        0.8757979423        0.8757976279
  C        -0.0791909513        1.8306723299        1.8306701166
  C         2.7855958750        2.7855976240        0.8755653560
  C         1.8306706268       -0.0791905121        1.8306718665
  C         2.7855986058        0.8755648304        2.7855968355
  C         1.8306718134        1.8306704594       -0.0791915575
