       8
 i =        1, E =       -44.9614910182
  C         0.8075105246        2.7633832568        2.7633672186
  C        -0.0307979304       -0.0308215340       -0.0308012660
  C         0.9008445406        0.9008601082        0.9008468070
  C        -0.0875775117        1.8040516365        1.8040609487
  C         2.7633773620        2.7633838971        0.8075073567
  C         1.8040571465       -0.0875530804        1.8040504290
  C         2.7633890417        0.8074938570        2.7633986225
  C         1.8040554905        1.8040597405       -0.0875716280
       8
 i =        2, E =       -44.9691396256
  C         0.8820339798        2.7707172078        2.7707227117
  C        -0.1062307935       -0.1062266765       -0.1062296807
  C         0.8545119253        0.8545111264        0.8545126770
  C        -0.0665475994        1.8153401339        1.8153422103
  C         2.7707202340        2.7707166638        0.8820333130
  C         1.8153393166       -0.0665541112        1.8153396164
  C         2.7707179177        0.8820323841        2.7707152216
  C         1.8153444901        1.8153361364       -0.0665495930
       8
 i =        3, E =       -44.9708934749
  C         0.8685090303        2.7614037721        2.7614039674
  C        -0.0811213562       -0.0811235776       -0.0811217479
  C         0.8717513581        0.8717498255        0.8717512891
  C        -0.0767189502        1.8143727829        1.8143738393
  C         2.7614046798        2.7614036382        0.8685087458
  C         1.8143742951       -0.0767207268        1.8143740678
  C         2.7614050059        0.8685079866        2.7614053700
  C         1.8143739169        1.8143733063       -0.0767194806
       8
 i =        4, E =       -44.9709475533
  C         0.8666442928        2.7631544845        2.7631555867
  C        -0.0804422176       -0.0804418949       -0.0804420429
  C         0.8702504212        0.8702495439        0.8702504282
  C        -0.0779588198        1.8155456780        1.8155462666
  C         2.7631555151        2.7631545082        0.8666440632
  C         1.8155460257       -0.0779603970        1.8155461540
  C         2.7631553059        0.8666435873        2.7631548975
  C         1.8155467117        1.8155453374       -0.0779592390
       8
 i =        5, E =       -44.9709623478
  C         0.8677333038        2.7634570750        2.7634567531
  C        -0.0799461292       -0.0799472244       -0.0799463550
  C         0.8690218306        0.8690217193        0.8690218533
  C        -0.0784765584        1.8161562543        1.8161564993
  C         2.7634570663        2.7634570879        0.8677331974
  C         1.8161566580       -0.0784763633        1.8161565104
  C         2.7634574744        0.8677328971        2.7634577184
  C         1.8161563773        1.8161565708       -0.0784765042
       8
 i =        6, E =       -44.9709662062
  C         0.8684574957        2.7635545160        2.7635552615
  C        -0.0791115534       -0.0791100880       -0.0791112182
  C         0.8685561865        0.8685561323        0.8685561993
  C        -0.0788848196        1.8162109932        1.8162110130
  C         2.7635548511        2.7635544898        0.8684575258
  C         1.8162106527       -0.0788853822        1.8162108036
  C         2.7635543267        0.8684577718        2.7635538798
  C         1.8162112836        1.8162105413       -0.0788849434
       8
 i =        7, E =       -44.9709662061
  C         0.8684574957        2.7635545160        2.7635552615
  C        -0.0791115534       -0.0791100880       -0.0791112182
  C         0.8685561865        0.8685561323        0.8685561993
  C        -0.0788848196        1.8162109932        1.8162110130
  C         2.7635548511        2.7635544898        0.8684575258
  C         1.8162106527       -0.0788853822        1.8162108036
  C         2.7635543267        0.8684577718        2.7635538798
  C         1.8162112836        1.8162105413       -0.0788849434
