       8
 i =        1, E =       -45.1083523840
  C         0.8934176579        2.6833173359        2.6833157216
  C        -0.0014455876       -0.0014499233       -0.0014461051
  C         0.8935795309        0.8935831331        0.8935851762
  C        -0.0015848866        1.7882942947        1.7882903098
  C         2.6833137995        2.6833159552        0.8934129711
  C         1.7882929647       -0.0015807197        1.7882906912
  C         2.6833211681        0.8934158079        2.6833184026
  C         1.7882882782        1.7882870183       -0.0015842420
       8
 i =        2, E =       -45.1083551148
  C         0.8939609408        2.6840552900        2.6840542299
  C        -0.0009790456       -0.0009810950       -0.0009792867
  C         0.8940509394        0.8940522033        0.8940534555
  C        -0.0010560225        1.7890309985        1.7890290761
  C         2.6840530183        2.6840545092        0.8939583802
  C         1.7890304094       -0.0010539491        1.7890293217
  C         2.6840567794        0.8939596588        2.6840555945
  C         1.7890279550        1.7890273400       -0.0010558126
       8
 i =        3, E =       -45.1083551146
  C         0.8939609408        2.6840552900        2.6840542299
  C        -0.0009790456       -0.0009810950       -0.0009792867
  C         0.8940509394        0.8940522033        0.8940534555
  C        -0.0010560225        1.7890309985        1.7890290761
  C         2.6840530183        2.6840545092        0.8939583802
  C         1.7890304094       -0.0010539491        1.7890293217
  C         2.6840567794        0.8939596588        2.6840555945
  C         1.7890279550        1.7890273400       -0.0010558126
