       8
 i =        1, E =       -44.9016037901
  C         1.0828365467        2.6497918858        2.5945210604
  C         0.0278823902       -0.1803903959        0.0322293781
  C         0.8796088776        0.9608173705        0.8781837781
  C         0.0542142563        1.7832451879        1.8930329781
  C         2.5994820885        2.6538367457        1.0805280347
  C         1.7568871074       -0.0472912031        1.7589420518
  C         2.4529371761        1.1434273200        2.4525477696
  C         1.8934454336        1.7861824038        0.0573420846
       8
 i =        2, E =       -44.9519945994
  C         1.2379943845        2.5930403318        2.4628178535
  C         0.0808602519       -0.3415338157        0.0815267271
  C         0.8833863941        0.9511503259        0.8835590376
  C         0.1086819451        1.8083201870        1.8869392664
  C         2.4795975816        2.6011218647        1.2320216483
  C         1.7742113549       -0.0632597406        1.7734446909
  C         2.3125532110        1.3934273200        2.3181925637
  C         1.8826876637        1.8192000951        0.1212587878
       8
 i =        3, E =       -45.0327393484
  C         1.1476446790        2.6579206054        2.4135348462
  C         0.1587784669       -0.4676937107        0.1612459225
  C         0.8889131299        0.8982601119        0.8855767611
  C         0.0950231345        1.8463847442        1.8092501070
  C         2.4250530274        2.6590192798        1.1469268446
  C         1.8211625390       -0.0418287769        1.8211514320
  C         2.4331489810        1.3560526355        2.4335137997
  C         1.8062479725        1.8540829993        0.1004306711
       8
 i =        4, E =       -45.0889403188
  C         1.1339567354        2.7109272226        2.3164714995
  C         0.2763765081       -0.7176937107        0.2797484428
  C         0.8669107049        0.8559844663        0.8657158699
  C         0.0860592271        1.9250869181        1.7248585818
  C         2.3166879873        2.7041146916        1.1314778436
  C         1.8517883058        0.0450199288        1.8523927032
  C         2.5448259918        1.3545832131        2.5365528858
  C         1.7211354783        1.9188659334        0.0819328524
       8
 i =        5, E =       -45.1008284964
  C         1.1529211966        2.7278339372        2.2335738768
  C         0.3135335198       -0.8618862725        0.3209526918
  C         0.8792478019        0.7737393945        0.8740819654
  C         0.0717059905        1.9529289205        1.6561490312
  C         2.2295302015        2.7261389124        1.1564576410
  C         1.8922113500        0.1519296771        1.8889133320
  C         2.6355057001        1.3836722795        2.6288322659
  C         1.6598494541        1.9530818602        0.0662454010
       8
 i =        6, E =       -45.1095507226
  C         1.1699697260        2.7061963462        2.2507337995
  C         0.2976513756       -0.7955260672        0.2982589524
  C         0.8949401850        0.7718213378        0.8980660671
  C         0.0661841838        1.9456301690        1.6870200000
  C         2.2475554680        2.7085913689        1.1638448403
  C         1.8588646944        0.1446972768        1.8538270976
  C         2.6240636440        1.3566117652        2.6215632634
  C         1.6864887962        1.9418869797        0.0667937515
       8
 i =        7, E =       -45.1115018113
  C         1.1669636595        2.6969514940        2.2586897331
  C         0.2908245620       -0.7834122491        0.2997217969
  C         0.9219401776        0.7269397397        0.9182118069
  C         0.0852332159        1.9383100296        1.6956599204
  C         2.2536251172        2.6993767817        1.1651336251
  C         1.8515787712        0.1284223742        1.8521485077
  C         2.6208199784        1.3780712290        2.6146135102
  C         1.6992967955        1.9381866900        0.0777564214
       8
 i =        8, E =       -45.1121048485
  C         1.1860027772        2.6888576586        2.2596003763
  C         0.2892289270       -0.8001338677        0.2981415634
  C         0.9052890191        0.7163565627        0.9091315828
  C         0.0900182718        1.9388706493        1.7094515078
  C         2.2538024225        2.6922326446        1.1752384689
  C         1.8481251777        0.1348735321        1.8444239780
  C         2.6231364552        1.3838309457        2.6180482302
  C         1.7105654508        1.9315868701        0.0856689506
       8
 i =        9, E =       -45.1126049252
  C         1.1856129802        2.6804101570        2.2647884293
  C         0.2985923068       -0.8105633973        0.3142022533
  C         0.9027007432        0.7165480368        0.9087402351
  C         0.0849370841        1.9388019904        1.7142398944
  C         2.2571423814        2.6866159661        1.1702952043
  C         1.8508650214        0.1261025484        1.8450701059
  C         2.6232950544        1.3906387278        2.6172764280
  C         1.7173487699        1.9275828661        0.0795272559
       8
 i =       10, E =       -45.1129610135
  C         1.1938669238        2.6705822109        2.2707735557
  C         0.3024424013       -0.8225335238        0.3375113495
  C         0.9049165479        0.7037478077        0.9108521214
  C         0.0857532793        1.9367017330        1.7182003591
  C         2.2536507599        2.6822807286        1.1721460220
  C         1.8547903688        0.1162950034        1.8492847262
  C         2.6311236259        1.3977234614        2.6192932591
  C         1.7285879261        1.9171266228        0.0701737519
       8
 i =       11, E =       -45.1137605445
  C         1.2121201334        2.6519811152        2.2919809901
  C         0.2933170341       -0.8319188000        0.3718167650
  C         0.9024859074        0.6803647294        0.9192424950
  C         0.0934132205        1.9388154018        1.7246281690
  C         2.2485884239        2.6790300097        1.1649963505
  C         1.8638842575        0.1009764558        1.8542943330
  C         2.6432223713        1.4072801479        2.6223401210
  C         1.7482114652        1.8910153407        0.0615601907
       8
 i =       12, E =       -45.0754271027
  C         1.2849248811        2.5392573328        2.4033974180
  C         0.0433170341       -0.9140312783        0.5355651645
  C         0.8641704096        0.7992955934        0.9862554007
  C         0.3077905184        2.0108741510        1.6181674433
  C         2.1334752291        2.7695068573        1.1190563069
  C         1.7952742327        0.2003593099        1.7220274686
  C         2.5683015563        1.2021931276        2.6320708901
  C         1.8050088530        1.9936812857        0.0336872855
       8
 i =       13, E =       -45.0941779465
  C         1.4378069207        2.3635657104        2.5835834619
  C        -0.1150964056       -0.9964009071        0.7855651645
  C         0.8270344317        0.6983244147        1.0830501916
  C         0.4555967986        2.0480283400        1.6138304780
  C         2.0645436297        2.7913332267        1.0407034963
  C         1.8370072593        0.1463159264        1.6996241572
  C         2.5966995627        1.1840830482        2.6583720738
  C         1.9460883650        1.8729227323       -0.0198569295
       8
 i =       14, E =       -45.1411435888
  C         1.5389415232        2.2712214698        2.6564357210
  C        -0.1193510480       -0.8432920835        0.8558401289
  C         0.8043805478        0.4483244147        1.1017011746
  C         0.4038749732        1.8985776851        1.8146976142
  C         2.2286895791        2.6796828919        1.0174589536
  C         2.0003405026       -0.0744962820        1.7999166001
  C         2.6004510923        1.4098001622        2.6726932865
  C         2.0603433350        1.6331015148       -0.0386085935
       8
 i =       15, E =       -45.1166244132
  C         1.4207768638        2.4292815017        2.4969214859
  C         0.1306489520       -0.7497273751        0.6474104099
  C         0.8255892567        0.4335639930        1.0448978420
  C         0.1711202374        1.8672708179        1.8606184834
  C         2.3368084041        2.6411316302        1.0502635440
  C         2.0135845223       -0.1097371901        1.9164635621
  C         2.6677739352        1.5102818721        2.6379607266
  C         1.9456210411        1.6038188000        0.0136553837
       8
 i =       16, E =       -45.2254426918
  C         1.4865632982        2.3416610229        2.5563753561
  C        -0.0547086153       -0.7909370430        0.8178256149
  C         0.7505087667        0.5805061044        1.1379295494
  C         0.2969842087        1.9617375878        1.7525787593
  C         2.3278349363        2.7620069194        0.9520134312
  C         1.9357041384       -0.0415489430        1.8212892248
  C         2.6202087744        1.2602818721        2.5977966481
  C         1.9833856604        1.6831423517        0.0128474662
       8
 i =       17, E =       -45.2514703436
  C         1.5710410452        2.2974403369        2.5946312860
  C        -0.1144095571       -0.8366020569        1.0523272440
  C         0.7068251531        0.4610298347        1.2041026513
  C         0.3744052132        1.9232961647        1.8167934621
  C         2.4605787598        2.7362698200        0.8521790146
  C         1.9311539978       -0.0988030174        1.8108814966
  C         2.6221505776        1.2407165935        2.5957047096
  C         2.0275212024        1.6617109103       -0.0101508485
       8
 i =       18, E =       -45.2652723024
  C         1.5439121305        2.3143767133        2.5660375773
  C        -0.0087146420       -0.8663229400        1.1242028734
  C         0.7333025061        0.4105490158        1.1993220632
  C         0.3715266446        1.8518787680        1.8543298639
  C         2.4934453746        2.7325964014        0.8673638721
  C         1.9017836451       -0.1324982776        1.8571741140
  C         2.6252709167        1.2255064956        2.6240931268
  C         2.0556986151        1.7004500906       -0.0656174022
       8
 i =       19, E =       -45.2724699263
  C         1.4861826045        2.3537819980        2.5772849249
  C        -0.0023506586       -0.8367406418        1.0770599356
  C         0.7335603503        0.3611502252        1.1834392031
  C         0.3854756136        1.8088601275        1.8362684508
  C         2.5741388423        2.7555320868        0.9058055472
  C         1.8845958126       -0.1791404797        1.9175672733
  C         2.6055661958        1.2314162618        2.5882323641
  C         2.0532491752        1.8067574016       -0.0494006282
       8
 i =       20, E =       -45.2839949201
  C         1.5134083619        2.3411947906        2.5951849021
  C         0.0062589807       -0.8512759707        1.0711972506
  C         0.6944147487        0.3508589453        1.2335541071
  C         0.3606381359        1.8239461912        1.8447417038
  C         2.5488759289        2.7346265641        0.8874385072
  C         1.9169952505       -0.1684321261        1.9081506281
  C         2.6231549867        1.2231328895        2.5998764123
  C         2.0635795943        1.8058841022       -0.0640920100
       8
 i =       21, E =       -45.2964589227
  C         1.5183004163        2.2926203887        2.6274490461
  C         0.0015092477       -0.9297231707        1.1059455846
  C         0.6561155530        0.2902047218        1.2945330585
  C         0.3479069173        1.7893540569        1.8421403951
  C         2.5416274527        2.7132553696        0.8956430977
  C         1.9307957522       -0.1535719457        1.9387956535
  C         2.6707946561        1.2264987915        2.6094023133
  C         2.1472623490        1.8680472217       -0.1194876914
       8
 i =       22, E =       -45.3042284651
  C         1.5237044374        2.2357882813        2.6562976968
  C         0.0365408085       -0.9943241575        1.1516294360
  C         0.6220644714        0.1584522462        1.4095118535
  C         0.3051990061        1.6983365818        1.8751145648
  C         2.5743243995        2.7151536061        0.8941626936
  C         1.9556135136       -0.1969209948        1.9783886823
  C         2.7048309460        1.2478404652        2.6106659934
  C         2.2711020017        1.9609478945       -0.1531689277
       8
 i =       23, E =       -45.3137466187
  C         1.5237809307        2.2147245184        2.6118461973
  C         0.0327476750       -1.0523923268        1.1570860455
  C         0.6320127584        0.1572973089        1.4630743840
  C         0.2508431111        1.6467636576        1.8864129293
  C         2.5636857830        2.7645622167        0.8846919092
  C         1.9677166034       -0.2030085436        1.9740050352
  C         2.6971832602        1.2515031700        2.6222887360
  C         2.2930122424        2.0207768107       -0.1561634285
       8
 i =       24, E =       -45.3282315924
  C         1.5644054034        2.1951088127        2.5700112482
  C         0.0121918388       -1.1247148414        1.2499451820
  C         0.6543751561        0.1092232840        1.5730554235
  C         0.2154823137        1.5474915938        1.9788399436
  C         2.5709922151        2.8268546992        0.8503343701
  C         1.9985358378       -0.2528825819        1.9633328124
  C         2.7332520565        1.2230697508        2.6425112561
  C         2.2943499951        2.0700421665       -0.2177822549
       8
 i =       25, E =       -45.3325546040
  C         1.6155363964        2.1555416361        2.5023537938
  C        -0.0025130791       -1.1991019205        1.3311362147
  C         0.6529724650        0.0395590149        1.6472976372
  C         0.1740720138        1.4834062362        2.0473393608
  C         2.6334687734        2.8981702171        0.7975945839
  C         2.0152398742       -0.2862185395        1.9480947393
  C         2.7604473303        1.2114889662        2.6907021688
  C         2.2911565569        2.1018678683       -0.2195342286
       8
 i =       26, E =       -45.3346621188
  C         1.5982500053        2.1868314582        2.5168856045
  C        -0.0266874892       -1.1492557440        1.3127615196
  C         0.6594095131        0.0712318779        1.5983694712
  C         0.2138070835        1.5242550627        2.0231760357
  C         2.6623677185        2.8739916870        0.7916825863
  C         1.9953846045       -0.2825129694        1.9417518173
  C         2.7528585443        1.2093271016        2.6879176556
  C         2.2389807306        2.0705599796       -0.2040214848
       8
 i =       27, E =       -45.3362970393
  C         1.5918789625        2.1724270718        2.5302115180
  C        -0.0074059169       -1.1548184407        1.3159850339
  C         0.6517122171        0.0679819223        1.6092755663
  C         0.2088803002        1.5153398955        2.0163042189
  C         2.6517953907        2.8711723541        0.7832087290
  C         1.9933456701       -0.2900186615        1.9566577173
  C         2.7592956259        1.2201752828        2.6833870184
  C         2.2668551468        2.0838266984       -0.2088224051
       8
 i =       28, E =       -45.3367702215
  C         1.5906007162        2.1708900310        2.5204294106
  C        -0.0075113594       -1.1486409740        1.3077285183
  C         0.6567079475        0.0711962109        1.6023548293
  C         0.2026754982        1.5198823281        2.0130715083
  C         2.6454952436        2.8787811381        0.7876995788
  C         1.9932901829       -0.2936527828        1.9527933695
  C         2.7726141298        1.2302996718        2.6857197772
  C         2.2707406214        2.0745120496       -0.2062702502
       8
 i =       29, E =       -45.3372688596
  C         1.5965847688        2.1700617958        2.5155252693
  C        -0.0116925824       -1.1511427027        1.3107803623
  C         0.6577821099        0.0699144353        1.6043713036
  C         0.2065662043        1.5180866899        2.0137601532
  C         2.6520449631        2.8877753635        0.7776413292
  C         1.9920018246       -0.3047390663        1.9473736481
  C         2.7818581266        1.2315148638        2.6929746424
  C         2.2692313693        2.0839237807       -0.2108779471
       8
 i =       30, E =       -45.3377890613
  C         1.6076618464        2.1590493382        2.5163743205
  C        -0.0137574745       -1.1459027222        1.3025029768
  C         0.6602471125        0.0730412669        1.5928177773
  C         0.2241714986        1.5232084871        2.0018600088
  C         2.6588955818        2.9007404938        0.7645919512
  C         1.9778166530       -0.3269223949        1.9390513816
  C         2.8037573540        1.2431102515        2.6993533920
  C         2.2825374711        2.0925644677       -0.2153177895
       8
 i =       31, E =       -45.3379642022
  C         1.6146761767        2.1559086992        2.5097532155
  C        -0.0130115546       -1.1530898570        1.3088127765
  C         0.6633726492        0.0659507450        1.5902553270
  C         0.2332669509        1.5159366252        1.9982969138
  C         2.6642497530        2.8992086496        0.7634175014
  C         1.9859125397       -0.3458315547        1.9317163629
  C         2.8306531445        1.2534692508        2.7074748596
  C         2.3028598431        2.1050494453       -0.2269171414
       8
 i =       32, E =       -45.3382035468
  C         1.6239435360        2.1460617713        2.5064727828
  C        -0.0073681365       -1.1535009729        1.3104934146
  C         0.6688277837        0.0645592029        1.5905764744
  C         0.2370669548        1.5110055572        1.9976191384
  C         2.6684972564        2.9022270332        0.7641107159
  C         1.9858799131       -0.3486949241        1.9300214893
  C         2.8366626885        1.2506120673        2.7069590421
  C         2.3157450476        2.1067208306       -0.2297564169
       8
 i =       33, E =       -45.3385330868
  C         1.6532398273        2.1268556657        2.4954294265
  C         0.0080871948       -1.1535937803        1.3123094017
  C         0.6865299396        0.0621016613        1.5858760155
  C         0.2577026800        1.5036541572        1.9934559979
  C         2.6858886370        2.8996052848        0.7600721578
  C         1.9974210867       -0.3623625942        1.9188941598
  C         2.8593231091        1.2466230168        2.6996745459
  C         2.3500052500        2.1056611706       -0.2411073673
       8
 i =       34, E =       -45.3387493040
  C         1.6653200501        2.1236847793        2.4859863957
  C         0.0179229433       -1.1526647122        1.3077484183
  C         0.6995776864        0.0623257468        1.5802915787
  C         0.2689348347        1.5012457995        1.9883747005
  C         2.6960380116        2.8910729765        0.7541979136
  C         2.0111985237       -0.3642857529        1.9117510441
  C         2.8634642148        1.2392061730        2.6920609935
  C         2.3555800216        2.0989690799       -0.2468324282
       8
 i =       35, E =       -45.3389936053
  C         1.6741847748        2.1210713863        2.4746433923
  C         0.0295910516       -1.1580084712        1.2969089170
  C         0.7152050363        0.0569290816        1.5721071271
  C         0.2825497608        1.4955455690        1.9776362268
  C         2.7085852451        2.8778160838        0.7443121477
  C         2.0318096000       -0.3674843488        1.9056147750
  C         2.8732691085        1.2294118667        2.6813986056
  C         2.3592549711        2.0874653395       -0.2559579332
       8
 i =       36, E =       -45.3391221303
  C         1.6757281352        2.1182694177        2.4715409988
  C         0.0364404412       -1.1669306833        1.2868379822
  C         0.7188936523        0.0496556487        1.5658684892
  C         0.2881756408        1.4912473257        1.9700665497
  C         2.7127613373        2.8733899691        0.7396662827
  C         2.0374703328       -0.3721635749        1.9037575970
  C         2.8775011400        1.2266972774        2.6782353621
  C         2.3596328331        2.0813009548       -0.2578307111
       8
 i =       37, E =       -45.3393439116
  C         1.6886114793        2.0970690560        2.4607156805
  C         0.0620066076       -1.2000529015        1.2530112455
  C         0.7350373284        0.0195769515        1.5486103758
  C         0.3066587038        1.4681604727        1.9476597273
  C         2.7270947059        2.8583759513        0.7265718426
  C         2.0557293976       -0.3929309641        1.8937588974
  C         2.8998946356        1.2148396133        2.6684891546
  C         2.3732927312        2.0648094278       -0.2683117712
       8
 i =       38, E =       -45.3394394979
  C         1.6821001391        2.0956007971        2.4663841646
  C         0.0592804227       -1.2073538932        1.2526056970
  C         0.7263712925        0.0134025061        1.5531025819
  C         0.2983374436        1.4655281961        1.9534984452
  C         2.7207311977        2.8567279460        0.7312881116
  C         2.0490415033       -0.3900168547        1.8971523835
  C         2.8903373657        1.2116248017        2.6705638040
  C         2.3632253666        2.0612708117       -0.2624983047
       8
 i =       39, E =       -45.3395008805
  C         1.6838224453        2.0858654917        2.4677664372
  C         0.0585877772       -1.2129148639        1.2571853408
  C         0.7255926578        0.0058744387        1.5556658162
  C         0.2974127033        1.4583511173        1.9558493522
  C         2.7198432445        2.8546125667        0.7340963005
  C         2.0463105666       -0.3968534619        1.8957379894
  C         2.8912682596        1.2062380520        2.6746833799
  C         2.3665831536        2.0595180606       -0.2618043240
       8
 i =       40, E =       -45.3395196689
  C         1.6853649260        2.0745456021        2.4674936367
  C         0.0617077642       -1.2217920160        1.2526355723
  C         0.7277038824       -0.0047294974        1.5532334385
  C         0.2995751911        1.4484601864        1.9539779301
  C         2.7200297862        2.8459685212        0.7343714791
  C         2.0477224209       -0.4047935397        1.8948868735
  C         2.8935133053        1.1986006985        2.6743812244
  C         2.3670805643        2.0518122119       -0.2622860567
       8
 i =       41, E =       -45.3395283472
  C         1.6834552856        2.0746576795        2.4680748064
  C         0.0570838151       -1.2185394612        1.2572585248
  C         0.7257151462       -0.0028861991        1.5556818444
  C         0.2972539963        1.4491221938        1.9557736731
  C         2.7175343158        2.8466277506        0.7356282182
  C         2.0454859194       -0.4046769157        1.8972908810
  C         2.8921341001        1.1987457077        2.6760332494
  C         2.3656628051        2.0534433030       -0.2617995856
       8
 i =       42, E =       -45.3395317278
  C         1.6840205987        2.0740406247        2.4666695515
  C         0.0573153738       -1.2205656734        1.2570303267
  C         0.7253544578       -0.0041200624        1.5554690722
  C         0.2976866586        1.4484343757        1.9550345625
  C         2.7179231699        2.8462488380        0.7350930495
  C         2.0461047907       -0.4059408965        1.8974028949
  C         2.8925664036        1.1983643972        2.6758518879
  C         2.3656222060        2.0530008179       -0.2623696293
       8
 i =       43, E =       -45.3395323966
  C         1.6838038696        2.0736363539        2.4661448724
  C         0.0571467268       -1.2212077274        1.2561738479
  C         0.7254724362       -0.0050310313        1.5550377950
  C         0.2976420291        1.4478375223        1.9546150846
  C         2.7175659360        2.8455763160        0.7349593451
  C         2.0460642903       -0.4062472267        1.8974088055
  C         2.8925649430        1.1983668498        2.6757958017
  C         2.3650895055        2.0527842725       -0.2625917052
       8
 i =       44, E =       -45.3395323954
  C         1.6838038696        2.0736363539        2.4661448724
  C         0.0571467268       -1.2212077274        1.2561738479
  C         0.7254724362       -0.0050310313        1.5550377950
  C         0.2976420291        1.4478375223        1.9546150846
  C         2.7175659360        2.8455763160        0.7349593451
  C         2.0460642903       -0.4062472267        1.8974088055
  C         2.8925649430        1.1983668498        2.6757958017
  C         2.3650895055        2.0527842725       -0.2625917052
