       8
 i =        1, E =       -44.9573291124
  C         0.8934199268        2.6802894929        2.6802800393
  C         0.0000121185        0.0000295278       -0.0000034131
  C         0.8934543638        0.8934361988        0.8934277262
  C         0.0000095640        1.7868490165        1.7868495471
  C         2.6803067803        2.6802978099        0.8934282826
  C         1.7868607766       -0.0000024273        1.7868571266
  C         2.6802725417        0.8934439621        2.6802857026
  C         1.7868609899        1.7868867889        0.0000061589
       8
 i =        2, E =       -44.9573291126
  C         0.8934199268        2.6802894929        2.6802800393
  C         0.0000121185        0.0000295278       -0.0000034131
  C         0.8934543638        0.8934361988        0.8934277262
  C         0.0000095640        1.7868490165        1.7868495471
  C         2.6803067803        2.6802978099        0.8934282826
  C         1.7868607766       -0.0000024273        1.7868571266
  C         2.6802725417        0.8934439621        2.6802857026
  C         1.7868609899        1.7868867889        0.0000061589
