       8
 i =        1, E =       -45.1141885360
  C         0.8720605167        2.7112330177        2.7112332401
  C        -0.0188482626       -0.0188566805       -0.0188488314
  C         0.8937842537        0.8937954525        0.8937886715
  C        -0.0351611427        1.7946967218        1.7946956450
  C         2.7112286675        2.7112332736        0.8720557561
  C         1.7946878021       -0.0351548089        1.7946874655
  C         2.7112359873        0.8720484688        2.7112320317
  C         1.7946955094        1.7946879955       -0.0351606168
       8
 i =        2, E =       -45.1145017044
  C         0.8791795168        2.7138796929        2.7138801184
  C        -0.0277117659       -0.0277139532       -0.0277118221
  C         0.8888700816        0.8888740143        0.8888716614
  C        -0.0345778906        1.7983043169        1.7983041628
  C         2.7138782343        2.7138794645        0.8791775686
  C         1.7983010416       -0.0345753571        1.7983009958
  C         2.7138812027        0.8791752488        2.7138792081
  C         1.7983038060        1.7983007626       -0.0345779484
       8
 i =        3, E =       -45.1145296069
  C         0.8830721164        2.7147515707        2.7147516463
  C        -0.0293057777       -0.0293062784       -0.0293056209
  C         0.8868202006        0.8868212310        0.8868206169
  C        -0.0318110759        1.7998332301        1.7998332203
  C         2.7147508969        2.7147511005        0.8830715348
  C         1.7998323485       -0.0318105777        1.7998321231
  C         2.7147518761        0.8830711237        2.7147510880
  C         1.7998329959        1.7998320435       -0.0318113914
       8
 i =        4, E =       -45.1145507084
  C         0.8881526376        2.7168340670        2.7168338711
  C        -0.0294023416       -0.0294013497       -0.0294022343
  C         0.8855855323        0.8855838962        0.8855849032
  C        -0.0273277679        1.8021896144        1.8021896682
  C         2.7168344520        2.7168338276        0.8881532532
  C         1.8021908394       -0.0273288719        1.8021906608
  C         2.7168334614        0.8881543423        2.7168339463
  C         1.8021896786        1.8021907695       -0.0273279828
       8
 i =        5, E =       -45.1145811714
  C         0.8950584596        2.7210209105        2.7210204786
  C        -0.0271719954       -0.0271699415       -0.0271719904
  C         0.8865216886        0.8865179498        0.8865201491
  C        -0.0209081374        1.8064238001        1.8064238645
  C         2.7210222429        2.7210210681        0.8950600661
  C         1.8064267375       -0.0209104196        1.8064267249
  C         2.7210196572        0.8950622308        2.7210212832
  C         1.8064242003        1.8064269662       -0.0209081835
       8
 i =        6, E =       -45.1132822158
  C         0.9709802078        2.7714028610        2.7714001130
  C         0.0047728099        0.0047845413        0.0047721752
  C         0.9061366150        0.9061135524        0.9061262830
  C         0.0500288307        1.8571515374        1.8571516416
  C         2.7714128119        2.7714065588        0.9709912482
  C         1.8571702825        0.0500156885        1.8571719685
  C         2.7713958265        0.9710027516        2.7714077512
  C         1.8571552390        1.8571733042        0.0500299646
       8
 i =        7, E =       -45.1146754722
  C         0.9072649813        2.7302236118        2.7302228606
  C        -0.0198487289       -0.0198454122       -0.0198486585
  C         0.8920524027        0.8920465222        0.8920499978
  C        -0.0093169959        1.8154616403        1.8154616690
  C         2.7302260308        2.7302240950        0.9072675288
  C         1.8154662753       -0.0093206857        1.8154664819
  C         2.7302214981        0.9072707805        2.7302244135
  C         1.8154621906        1.8154669269       -0.0093168188
       8
 i =        8, E =       -45.1147441006
  C         0.9149909623        2.7367791699        2.7367784426
  C        -0.0139827626       -0.0139789878       -0.0139828378
  C         0.8970184341        0.8970117487        0.8970156129
  C        -0.0019106404        1.8219973457        1.8219974641
  C         2.7367822131        2.7367800101        0.9149939290
  C         1.8220026670       -0.0019148950        1.8220030575
  C         2.7367767082        0.9149974612        2.7367802334
  C         1.8219982726        1.8220036196       -0.0019103093
       8
 i =        9, E =       -45.1147564642
  C         0.9298441598        2.7534881891        2.7534881070
  C         0.0050012901        0.0050038464        0.0050005119
  C         0.9147783097        0.9147733725        0.9147759364
  C         0.0131717730        1.8386316579        1.8386317967
  C         2.7534912529        2.7534897666        0.9298461994
  C         1.8386356856        0.0131683253        1.8386363279
  C         2.7534863773        0.9298481530        2.7534891888
  C         1.8386335045        1.8386365918        0.0131719727
       8
 i =       10, E =       -45.1148916402
  C         0.9191555243        2.7453857555        2.7453858357
  C        -0.0015407861       -0.0015397455       -0.0015414841
  C         0.9102869047        0.9102844584        0.9102854196
  C         0.0031014287        1.8304457834        1.8304459915
  C         2.7453877707        2.7453871403        0.9191568639
  C         1.8304480470        0.0030998820        1.8304486041
  C         2.7453849813        0.9191575667        2.7453867732
  C         1.8304473501        1.8304489410        0.0031017987
       8
 i =       11, E =       -45.1149219678
  C         0.9132151061        2.7430335536        2.7430335972
  C        -0.0012789253       -0.0012792496       -0.0012791122
  C         0.9125484538        0.9125486027        0.9125483931
  C        -0.0021280407        1.8280422403        1.8280421830
  C         2.7430337805        2.7430338307        0.9132150432
  C         1.8280423934       -0.0021279710        1.8280424174
  C         2.7430337074        0.9132147927        2.7430338344
  C         1.8280426509        1.8280423898       -0.0021280135
       8
 i =       12, E =       -45.1149288540
  C         0.9151353738        2.7453016295        2.7453016546
  C         0.0009156437        0.0009153242        0.0009155757
  C         0.9154962641        0.9154966478        0.9154963711
  C        -0.0002200641        1.8302753413        1.8302753289
  C         2.7453016784        2.7453016823        0.9151351796
  C         1.8302752297       -0.0002198750        1.8302752085
  C         2.7453018297        0.9151349434        2.7453017292
  C         1.8302754842        1.8302751960       -0.0002200764
       8
 i =       13, E =       -45.1149295214
  C         0.9150248204        2.7450187295        2.7450187235
  C         0.0001891522        0.0001891048        0.0001891413
  C         0.9149833792        0.9149834157        0.9149833989
  C        -0.0002177731        1.8299955870        1.8299955773
  C         2.7450187560        2.7450186852        0.9150247249
  C         1.8299956080       -0.0002178041        1.8299955835
  C         2.7450187771        0.9150247034        2.7450187151
  C         1.8299956117        1.8299955457       -0.0002178397
       8
 i =       14, E =       -45.1149295204
  C         0.9150248204        2.7450187295        2.7450187235
  C         0.0001891522        0.0001891048        0.0001891413
  C         0.9149833792        0.9149834157        0.9149833989
  C        -0.0002177731        1.8299955870        1.8299955773
  C         2.7450187560        2.7450186852        0.9150247249
  C         1.8299956080       -0.0002178041        1.8299955835
  C         2.7450187771        0.9150247034        2.7450187151
  C         1.8299956117        1.8299955457       -0.0002178397
