       8
 i =        1, E =       -44.9473073381
  C         0.8919168054        2.6681681355        2.6681700317
  C         0.0060474198        0.0060432757        0.0060461087
  C         0.8929886814        0.8929910382        0.8929941284
  C         0.0051507127        1.7805909298        1.7805834833
  C         2.6681660674        2.6681717919        0.8919132325
  C         1.7805877284        0.0051552873        1.7805893076
  C         2.6681760915        0.8919167043        2.6681703720
  C         1.7805856417        1.7805819211        0.0051524663
       8
 i =        2, E =       -44.9473730578
  C         0.8895823023        2.6644735718        2.6644737503
  C         0.0026300838        0.0026287774        0.0026298568
  C         0.8900199067        0.8900199500        0.8900210426
  C         0.0023064080        1.7771132009        1.7771110571
  C         2.6644723375        2.6644742456        0.8895810040
  C         1.7771125613        0.0023076281        1.7771129458
  C         2.6644754387        0.8895821017        2.6644741842
  C         1.7771113542        1.7771106894        0.0023066127
       8
 i =        3, E =       -44.9473871491
  C         0.8869713957        2.6617511676        2.6617509413
  C        -0.0007224873       -0.0007218551       -0.0007222801
  C         0.8868110920        0.8868109055        0.8868104185
  C        -0.0005806803        1.7743001240        1.7743011987
  C         2.6617516509        2.6617506792        0.8869720338
  C         1.7743006036       -0.0005813634        1.7743003316
  C         2.6617500835        0.8869714773        2.6617508447
  C         1.7743009211        1.7743014509       -0.0005808920
       8
 i =        4, E =       -44.9473886621
  C         0.8875582716        2.6625398217        2.6625397803
  C         0.0000442537        0.0000442823        0.0000442857
  C         0.8875516588        0.8875516276        0.8875516124
  C         0.0000492825        1.7750428786        1.7750429355
  C         2.6625398214        2.6625397609        0.8875583033
  C         1.7750429484        0.0000492516        1.7750429143
  C         2.6625397540        0.8875582850        2.6625398126
  C         1.7750428918        1.7750429547        0.0000492475
       8
 i =        5, E =       -44.9473886616
  C         0.8875582716        2.6625398217        2.6625397803
  C         0.0000442537        0.0000442823        0.0000442857
  C         0.8875516588        0.8875516276        0.8875516124
  C         0.0000492825        1.7750428786        1.7750429355
  C         2.6625398214        2.6625397609        0.8875583033
  C         1.7750429484        0.0000492516        1.7750429143
  C         2.6625397540        0.8875582850        2.6625398126
  C         1.7750428918        1.7750429547        0.0000492475
