       8
 i =        1, E =       -44.9729639570
  C         0.8300500295        2.7485786867        2.7485569910
  C        -0.0290351324       -0.0290441760       -0.0289937482
  C         0.8979402845        0.8979441378        0.8979144102
  C        -0.0724567330        1.8019795467        1.8019793468
  C         2.7485247446        2.7485273550        0.8300820586
  C         1.8019683056       -0.0724621978        1.8019793652
  C         2.7485801978        0.8300496485        2.7485471891
  C         1.8019791758        1.8019773700       -0.0725151381
       8
 i =        2, E =       -44.9770585927
  C         0.8808879991        2.7479468964        2.7479551141
  C        -0.0820729785       -0.0820714227       -0.0820810795
  C         0.8639557377        0.8639545171        0.8639587466
  C        -0.0591688708        1.8070323742        1.8070422544
  C         2.7479595937        2.7479577341        0.8808835633
  C         1.8070343669       -0.0591683659        1.8070414731
  C         2.7479472322        0.8808877706        2.7479562754
  C         1.8070378273        1.8070399439       -0.0591574364
       8
 i =        3, E =       -44.9776923613
  C         0.8670993427        2.7416256702        2.7416271651
  C        -0.0713217322       -0.0713221074       -0.0713188229
  C         0.8694351772        0.8694349066        0.8694369714
  C        -0.0689315192        1.8039595351        1.8039609784
  C         2.7416251114        2.7416253971        0.8671005986
  C         1.8039598825       -0.0689311180        1.8039611417
  C         2.7416262554        0.8670992700        2.7416272053
  C         1.8039602322        1.8039601500       -0.0689291844
       8
 i =        4, E =       -44.9777932297
  C         0.8618312373        2.7379309874        2.7379320678
  C        -0.0741833686       -0.0741834130       -0.0741830688
  C         0.8646082425        0.8646081891        0.8646098963
  C        -0.0741864540        1.8007571337        1.8007579129
  C         2.7379308754        2.7379308653        0.8618319266
  C         1.8007573038       -0.0741864848        1.8007577090
  C         2.7379309427        0.8618312002        2.7379318409
  C         1.8007573126        1.8007570729       -0.0741850579
       8
 i =        5, E =       -44.9778251830
  C         0.8592809831        2.7343912784        2.7343904487
  C        -0.0779963578       -0.0779966926       -0.0779945478
  C         0.8595572653        0.8595572813        0.8595568521
  C        -0.0780203326        1.7972511536        1.7972507005
  C         2.7343897187        2.7343899554        0.8592818649
  C         1.7972509440       -0.0780202783        1.7972509558
  C         2.7343914217        0.8592809536        2.7343905036
  C         1.7972509368        1.7972508772       -0.0780213584
       8
 i =        6, E =       -44.9778258976
  C         0.8593170573        2.7343522021        2.7343527969
  C        -0.0781793540       -0.0781791350       -0.0781804760
  C         0.8593554180        0.8593553993        0.8593558047
  C        -0.0781253124        1.7969199119        1.7969203531
  C         2.7343531577        2.7343529679        0.8593166477
  C         1.7969199993       -0.0781254115        1.7969202116
  C         2.7343520582        0.8593170746        2.7343527398
  C         1.7969201212        1.7969201190       -0.0781245995
       8
 i =        7, E =       -44.9778258971
  C         0.8593170573        2.7343522021        2.7343527969
  C        -0.0781793540       -0.0781791350       -0.0781804760
  C         0.8593554180        0.8593553993        0.8593558047
  C        -0.0781253124        1.7969199119        1.7969203531
  C         2.7343531577        2.7343529679        0.8593166477
  C         1.7969199993       -0.0781254115        1.7969202116
  C         2.7343520582        0.8593170746        2.7343527398
  C         1.7969201212        1.7969201190       -0.0781245995
