       8
 i =        1, E =       -44.9772231066
  C         0.8418702728        2.7362498648        2.7362467472
  C        -0.0262561677       -0.0262623076       -0.0262538700
  C         0.8963035728        0.8963056122        0.8963032997
  C        -0.0628621237        1.7985302076        1.7985264556
  C         2.7362447555        2.7362469980        0.8418756906
  C         1.7985273216       -0.0628621288        1.7985305380
  C         2.7362563387        0.8418732589        2.7362509081
  C         1.7985267988        1.7985287560       -0.0628690014
       8
 i =        2, E =       -44.9798100519
  C         0.8745930558        2.7316165428        2.7316173562
  C        -0.0649771747       -0.0649754333       -0.0649770092
  C         0.8707656264        0.8707669118        0.8707666362
  C        -0.0565134757        1.7995953479        1.7995975393
  C         2.7316183018        2.7316171590        0.8745922680
  C         1.7995951658       -0.0565149717        1.7995949154
  C         2.7316168390        0.8745922879        2.7316172699
  C         1.7995966316        1.7995951338       -0.0565133261
       8
 i =        3, E =       -44.9802009603
  C         0.8661359228        2.7247232970        2.7247234842
  C        -0.0677462753       -0.0677461267       -0.0677461473
  C         0.8651726250        0.8651724240        0.8651728125
  C        -0.0640735849        1.7947413839        1.7947417978
  C         2.7247236897        2.7247238312        0.8661357906
  C         1.7947415090       -0.0640743546        1.7947414247
  C         2.7247236895        0.8661357687        2.7247241501
  C         1.7947417433        1.7947414449       -0.0640735069
       8
 i =        4, E =       -44.9804549052
  C         0.8494159911        2.7097427875        2.7097430030
  C        -0.0793794101       -0.0793790412       -0.0793794408
  C         0.8493996694        0.8493991139        0.8493994534
  C        -0.0807551757        1.7810621360        1.7810621750
  C         2.7097427734        2.7097425918        0.8494158124
  C         1.7810623261       -0.0807550199        1.7810621624
  C         2.7097422504        0.8494157887        2.7097423925
  C         1.7810622352        1.7810621250       -0.0807548578
       8
 i =        5, E =       -44.9804793544
  C         0.8527332597        2.7127633268        2.7127632544
  C        -0.0769450038       -0.0769454172       -0.0769450225
  C         0.8527750408        0.8527748636        0.8527749282
  C        -0.0773324340        1.7830252669        1.7830251376
  C         2.7127631428        2.7127632787        0.8527333706
  C         1.7830252997       -0.0773322657        1.7830253679
  C         2.7127634002        0.8527332588        2.7127633680
  C         1.7830252125        1.7830252970       -0.0773324087
       8
 i =        6, E =       -44.9804800398
  C         0.8526497168        2.7126058303        2.7126059112
  C        -0.0773314663       -0.0773314293       -0.0773314905
  C         0.8525193543        0.8525192847        0.8525193469
  C        -0.0774397334        1.7826546117        1.7826546622
  C         2.7126058901        2.7126057935        0.8526497121
  C         1.7826546436       -0.0774397457        1.7826546295
  C         2.7126057777        0.8526497082        2.7126057832
  C         1.7826546528        1.7826546083       -0.0774396787
       8
 i =        7, E =       -44.9804800392
  C         0.8526497168        2.7126058303        2.7126059112
  C        -0.0773314663       -0.0773314293       -0.0773314905
  C         0.8525193543        0.8525192847        0.8525193469
  C        -0.0774397334        1.7826546117        1.7826546622
  C         2.7126058901        2.7126057935        0.8526497121
  C         1.7826546436       -0.0774397457        1.7826546295
  C         2.7126057777        0.8526497082        2.7126057832
  C         1.7826546528        1.7826546083       -0.0774396787
