       8
 i =        1, E =       -44.9757134480
  C         0.8724190296        2.7069714980        2.7069709857
  C        -0.0179584447       -0.0179716714       -0.0179611193
  C         0.8933080942        0.8933223888        0.8933144501
  C        -0.0337880736        1.7932211184        1.7932191224
  C         2.7069660506        2.7069741399        0.8724122517
  C         1.7932114127       -0.0337761558        1.7932115213
  C         2.7069781424        0.8724039053        2.7069739140
  C         1.7932192707        1.7932101633       -0.0337856991
       8
 i =        2, E =       -44.9758966608
  C         0.8786643115        2.7075615430        2.7075619392
  C        -0.0258335957       -0.0258329541       -0.0258334115
  C         0.8881742847        0.8881748590        0.8881748422
  C        -0.0329885487        1.7948843677        1.7948842096
  C         2.7075606996        2.7075607698        0.8786631741
  C         1.7948833422       -0.0329884776        1.7948830574
  C         2.7075617322        0.8786636852        2.7075605127
  C         1.7948835366        1.7948824488       -0.0329891178
       8
 i =        3, E =       -44.9759166847
  C         0.8813657850        2.7077109433        2.7077107252
  C        -0.0285111944       -0.0285104569       -0.0285108919
  C         0.8849112345        0.8849105878        0.8849111497
  C        -0.0311199631        1.7953416623        1.7953415438
  C         2.7077105594        2.7077100977        0.8813656288
  C         1.7953418437       -0.0311208219        1.7953413489
  C         2.7077103556        0.8813664856        2.7077101148
  C         1.7953410742        1.7953414832       -0.0311205285
       8
 i =        4, E =       -44.9759203553
  C         0.8828336876        2.7078371312        2.7078369486
  C        -0.0297058806       -0.0297055622       -0.0297057847
  C         0.8829731073        0.8829728095        0.8829729738
  C        -0.0297003564        1.7954211869        1.7954210876
  C         2.7078370100        2.7078368463        0.8828336799
  C         1.7954213200       -0.0297006232        1.7954211371
  C         2.7078369178        0.8828339934        2.7078368575
  C         1.7954210014        1.7954212277       -0.0297006035
       8
 i =        5, E =       -44.9759204300
  C         0.8829089299        2.7078940396        2.7078939348
  C        -0.0296535869       -0.0296535484       -0.0296536141
  C         0.8828961466        0.8828961316        0.8828960969
  C        -0.0295677442        1.7954144396        1.7954143500
  C         2.7078939677        2.7078939794        0.8829088611
  C         1.7954144232       -0.0295677553        1.7954143455
  C         2.7078939995        0.8829089781        2.7078939367
  C         1.7954143623        1.7954143987       -0.0295678405
       8
 i =        6, E =       -44.9759204295
  C         0.8829089299        2.7078940396        2.7078939348
  C        -0.0296535869       -0.0296535484       -0.0296536141
  C         0.8828961466        0.8828961316        0.8828960969
  C        -0.0295677442        1.7954144396        1.7954143500
  C         2.7078939677        2.7078939794        0.8829088611
  C         1.7954144232       -0.0295677553        1.7954143455
  C         2.7078939995        0.8829089781        2.7078939367
  C         1.7954143623        1.7954143987       -0.0295678405
