       3
 i =        0, time =        0.000, E =       -17.2192675424
  H         7.6494840704        8.2713985101        7.2900994549
  H         7.6256783471        6.7286014899        7.2418090373
  O         7.3505159296        7.4890220414        7.7581909628
       3
 i =        1, time =        0.500, E =       -17.2194343249
  H         7.6524161985        8.2657547486        7.2847382554
  H         7.6307421792        6.7290821112        7.2331476792
  O         7.3500030743        7.4893469192        7.7590786391
       3
 i =        2, time =        1.000, E =       -17.2195053526
  H         7.6556428195        8.2613451283        7.2789428253
  H         7.6356626765        6.7294357467        7.2247246758
  O         7.3494798819        7.4896023100        7.7599787284
       3
 i =        3, time =        1.500, E =       -17.2194923961
  H         7.6593307993        8.2578658210        7.2724093663
  H         7.6405375632        6.7301587989        7.2164005760
  O         7.3489297197        7.4897760702        7.7609191204
       3
 i =        4, time =        2.000, E =       -17.2194184694
  H         7.6630764700        8.2554683636        7.2658399461
  H         7.6447642179        6.7315699464        7.2092281802
  O         7.3484159496        7.4898385845        7.7617892334
       3
 i =        5, time =        2.500, E =       -17.2193089717
  H         7.6669551202        8.2537781766        7.2590839309
  H         7.6484376569        6.7339883499        7.2030630442
  O         7.3479279392        7.4897933320        7.7626076390
       3
 i =        6, time =        3.000, E =       -17.2191590171
  H         7.6713167104        8.2523338807        7.2515139954
  H         7.6518853901        6.7379403236        7.1973736157
  O         7.3474230647        7.4896362247        7.7634473187
       3
 i =        7, time =        3.500, E =       -17.2189970479
  H         7.6753948874        8.2510302701        7.2444396410
  H         7.6545456832        6.7429759706        7.1930984311
  O         7.3469850056        7.4894022667        7.7641666129
       3
 i =        8, time =        4.000, E =       -17.2188404149
  H         7.6789908187        8.2495852772        7.2381856743
  H         7.6563950103        6.7489358208        7.1902688032
  O         7.3466278866        7.4891192657        7.7647430574
       3
 i =        9, time =        4.500, E =       -17.2187069258
  H         7.6817912233        8.2478562881        7.2332813332
  H         7.6574020595        6.7552594700        7.1889060971
  O         7.3463735540        7.4888314894        7.7651419480
       3
 i =       10, time =        5.000, E =       -17.2185738864
  H         7.6840430931        8.2454705473        7.2292808662
  H         7.6577738826        6.7624505696        7.1886839034
  O         7.3461935581        7.4885306429        7.7654119369
       3
 i =       11, time =        5.500, E =       -17.2184632068
  H         7.6852400308        8.2428693918        7.2270787669
  H         7.6575710064        6.7686513525        7.1893908828
  O         7.3461161052        7.4883059186        7.7655099948
       3
 i =       12, time =        6.000, E =       -17.2183794482
  H         7.6854858093        8.2400522408        7.2264967187
  H         7.6569747735        6.7736915797        7.1907058673
  O         7.3461233525        7.4881679937        7.7654676280
       3
 i =       13, time =        6.500, E =       -17.2183100914
  H         7.6848189759        8.2366318712        7.2274460401
  H         7.6560057745        6.7780395305        7.1926205120
  O         7.3462116604        7.4881116851        7.7652909884
       3
 i =       14, time =        7.000, E =       -17.2182814085
  H         7.6834215775        8.2335580105        7.2296690453
  H         7.6549899908        6.7803507063        7.1944976564
  O         7.3463491076        7.4881617895        7.7650364869
       3
 i =       15, time =        7.500, E =       -17.2183206761
  H         7.6816260158        8.2314413732        7.2326305016
  H         7.6541363853        6.7802830923        7.1959589733
  O         7.3465016168        7.4883013350        7.7647617104
       3
 i =       16, time =        8.000, E =       -17.2184462436
  H         7.6790659059        8.2300133210        7.2369435292
  H         7.6532388295        6.7777200070        7.1973514730
  O         7.3467052407        7.4885545839        7.7644061921
       3
 i =       17, time =        8.500, E =       -17.2186166471
  H         7.6764895229        8.2299612911        7.2413637140
  H         7.6524783630        6.7733083612        7.1984018839
  O         7.3469014643        7.4888374361        7.7640655739
       3
 i =       18, time =        9.000, E =       -17.2188193157
  H         7.6738889467        8.2314608398        7.2459147372
  H         7.6517205148        6.7671590450        7.1993473644
  O         7.3470992354        7.4891318527        7.7637234204
       3
 i =       19, time =        9.500, E =       -17.2190345979
  H         7.6711800343        8.2348148468        7.2507583763
  H         7.6507818997        6.7591852462        7.2004975634
  O         7.3473154020        7.4894242196        7.7633500275
       3
 i =       20, time =       10.000, E =       -17.2192151118
  H         7.6685841284        8.2399280821        7.2555092705
  H         7.6495583054        6.7502976310        7.2020839376
  O         7.3475426074        7.4896631533        7.7629550856
       3
 i =       21, time =       10.500, E =       -17.2193377299
  H         7.6661396525        8.2466659069        7.2600936809
  H         7.6479067621        6.7411071143        7.2043870833
  O         7.3477874642        7.4898186547        7.7625255479
       3
 i =       22, time =       11.000, E =       -17.2193940329
  H         7.6641172158        8.2538445432        7.2639789266
  H         7.6459395413        6.7333012045        7.2073119312
  O         7.3480258924        7.4898590121        7.7621009446
       3
 i =       23, time =       11.500, E =       -17.2194069507
  H         7.6622107795        8.2618453128        7.2677121394
  H         7.6433941974        6.7263892877        7.2112804057
  O         7.3482937245        7.4897911545        7.7616202046
       3
 i =       24, time =       12.000, E =       -17.2193813881
  H         7.6603234622        8.2702311121        7.2714342615
  H         7.6402449731        6.7206809509        7.2163546932
  O         7.3485987542        7.4896231285        7.7610705130
       3
 i =       25, time =       12.500, E =       -17.2193264678
  H         7.6584168884        8.2782167466        7.2751658337
  H         7.6366417414        6.7165466687        7.2222992230
  O         7.3489340370        7.4893810432        7.7604654045
       3
 i =       26, time =       13.000, E =       -17.2192538649
  H         7.6564478950        8.2851442082        7.2789429275
  H         7.6327814642        6.7140706785        7.2287811639
  O         7.3492899428        7.4891010117        7.7598235620
       3
 i =       27, time =       13.500, E =       -17.2191766324
  H         7.6544585027        8.2903379124        7.2826545199
  H         7.6290167209        6.7131550381        7.2351900186
  O         7.3496416564        7.4888317283        7.7591904245
       3
 i =       28, time =       14.000, E =       -17.2190851215
  H         7.6522225415        8.2941131244        7.2867068628
  H         7.6251403207        6.7133896881        7.2418572953
  O         7.3500164981        7.4885791434        7.7585195001
       3
 i =       29, time =       14.500, E =       -17.2189739153
  H         7.6498308510        8.2962025654        7.2909288079
  H         7.6214900042        6.7143828871        7.2481808195
  O         7.3503874914        7.4883847504        7.7578594883
       3
 i =       30, time =       15.000, E =       -17.2188319789
  H         7.6471979181        8.2967130661        7.2954733214
  H         7.6180712364        6.7157396905        7.2541280881
  O         7.3507596703        7.4882666901        7.7572027892
       3
 i =       31, time =       15.500, E =       -17.2186916511
  H         7.6447586186        8.2957639260        7.2996016015
  H         7.6155133537        6.7168122522        7.2585820654
  O         7.3510660122        7.4882582579        7.7566663170
       3
 i =       32, time =       16.000, E =       -17.2186138908
  H         7.6430346692        8.2939999044        7.3024562513
  H         7.6142793548        6.7171115458        7.2607204102
  O         7.3512443701        7.4883496892        7.7563559158
       3
 i =       33, time =       16.500, E =       -17.2185667793
  H         7.6411330669        8.2907209933        7.3055283681
  H         7.6136997358        6.7166281795        7.2616910163
  O         7.3513929490        7.4885857622        7.7561053719
       3
 i =       34, time =       17.000, E =       -17.2185624361
  H         7.6398509638        8.2873648122        7.3075339592
  H         7.6140295753        6.7154479511        7.2610615516
  O         7.3514454010        7.4888705384        7.7560228521
       3
 i =       35, time =       17.500, E =       -17.2185990274
  H         7.6392658710        8.2842713025        7.3083596627
  H         7.6151603098        6.7137399503        7.2590282006
  O         7.3514035303        7.4891720155        7.7561031674
       3
 i =       36, time =       18.000, E =       -17.2186738972
  H         7.6394463832        8.2814691053        7.3078894142
  H         7.6171084187        6.7116192348        7.2555695557
  O         7.3512618202        7.4894811928        7.7563549965
       3
 i =       37, time =       18.500, E =       -17.2187735323
  H         7.6404596266        8.2795204890        7.3060404409
  H         7.6195111963        6.7097241931        7.2513445981
  O         7.3510387278        7.4897224827        7.7567420521
       3
 i =       38, time =       19.000, E =       -17.2188869539
  H         7.6421084401        8.2786576160        7.3031640905
  H         7.6218687792        6.7086603391        7.2472454481
  O         7.3507780517        7.4898431466        7.7571859867
       3
 i =       39, time =       19.500, E =       -17.2190437190
  H         7.6450120036        8.2784371446        7.2981729754
  H         7.6249847916        6.7083721534        7.2418907671
  O         7.3503901255        7.4898746185        7.7578422948
       3
 i =       40, time =       20.000, E =       -17.2191817483
  H         7.6484779544        8.2786729327        7.2922434532
  H         7.6280669464        6.7093063217        7.2366647823
  O         7.3499682977        7.4898005425        7.7585496417
       3
 i =       41, time =       20.500, E =       -17.2192901795
  H         7.6523849608        8.2789759067        7.2855612353
  H         7.6310607820        6.7116676359        7.2316724887
  O         7.3495236642        7.4896325413        7.7592896863
       3
 i =       42, time =       21.000, E =       -17.2193631123
  H         7.6567191172        8.2789268034        7.2781262484
  H         7.6340260851        6.7156840233        7.2268243693
  O         7.3490533238        7.4893826742        7.7600680516
       3
 i =       43, time =       21.500, E =       -17.2193939123
  H         7.6612301508        8.2780795748        7.2703422483
  H         7.6368855253        6.7213390628        7.2222519423
  O         7.3485779208        7.4890800911        7.7608510014
       3
 i =       44, time =       22.000, E =       -17.2193809146
  H         7.6658304522        8.2759919894        7.2623343375
  H         7.6397026859        6.7286953698        7.2178497395
  O         7.3480989887        7.4887487256        7.7616372883
       3
 i =       45, time =       22.500, E =       -17.2193218974
  H         7.6702032802        8.2723770835        7.2546293288
  H         7.6424278858        6.7373404863        7.2136790998
  O         7.3476396233        7.4884326611        7.7623898474
       3
 i =       46, time =       23.000, E =       -17.2192102762
  H         7.6742416675        8.2669628250        7.2473948520
  H         7.6451585090        6.7470504694        7.2095601674
  O         7.3472004638        7.4881631596        7.7631094264
       3
 i =       47, time =       23.500, E =       -17.2190574206
  H         7.6774443736        8.2602733950        7.2415202283
  H         7.6477132853        6.7564125974        7.2057222303
  O         7.3468245393        7.4879962074        7.7637255348
       3
 i =       48, time =       24.000, E =       -17.2188744676
  H         7.6797769333        8.2525644382        7.2370789770
  H         7.6501698514        6.7648998592        7.2020018872
  O         7.3465091999        7.4879488509        7.7642438384
       3
 i =       49, time =       24.500, E =       -17.2186458896
  H         7.6814243771        8.2435946136        7.2337397341
  H         7.6527831435        6.7726718636        7.1979714175
  O         7.3462267812        7.4880261661        7.7647121764
       3
 i =       50, time =       25.000, E =       -17.2183929598
  H         7.6823135971        8.2346842846        7.2317038216
  H         7.6553510258        6.7786150010        7.1939131791
  O         7.3459946330        7.4882150624        7.7651000995
       3
 i =       51, time =       25.500, E =       -17.2180847593
  H         7.6826785485        8.2253287616        7.2305409512
  H         7.6581900983        6.7831542182        7.1893091679
  O         7.3457781009        7.4885205048        7.7654673796
       3
 i =       52, time =       26.000, E =       -17.2177423434
  H         7.6826601163        8.2167616980        7.2300807379
  H         7.6610872763        6.7858073867        7.1844969966
  O         7.3455817200        7.4888951266        7.7658035070
       3
 i =       53, time =       26.500, E =       -17.2173572846
  H         7.6824528393        8.2089892881        7.2299900306
  H         7.6642026364        6.7866899257        7.1792091514
  O         7.3453831503        7.4893312614        7.7661463424
       3
 i =       54, time =       27.000, E =       -17.2170737513
  H         7.6823133171        8.2043189563        7.2299621475
  H         7.6667252002        6.7857529662        7.1748329130
  O         7.3452172915        7.4896866279        7.7664278207
       3
 i =       55, time =       27.500, E =       -17.2169665970
  H         7.6823846350        8.2030037060        7.2297664922
  H         7.6685098575        6.7833833006        7.1716392596
  O         7.3450843305        7.4899209153        7.7666453927
       3
 i =       56, time =       28.000, E =       -17.2170534815
  H         7.6827254158        8.2050567619        7.2293034189
  H         7.6696024167        6.7796073319        7.1695510261
  O         7.3449777579        7.4900316246        7.7668101845
       3
 i =       57, time =       28.500, E =       -17.2173040896
  H         7.6832619765        8.2103729320        7.2286931822
  H         7.6697557534        6.7749230581        7.1690201756
  O         7.3449178432        7.4899940105        7.7668861321
       3
 i =       58, time =       29.000, E =       -17.2176235091
  H         7.6837662124        8.2178826271        7.2282649747
  H         7.6688624593        6.7701858527        7.1702797307
  O         7.3449258144        7.4898215654        7.7668378056
       3
 i =       59, time =       29.500, E =       -17.2179611247
  H         7.6840409365        8.2272982514        7.2283400555
  H         7.6668576029        6.7654078678        7.1734413082
  O         7.3450183056        7.4895316367        7.7666379346
       3
 i =       60, time =       30.000, E =       -17.2182578388
  H         7.6838300566        8.2374396114        7.2292890247
  H         7.6638600172        6.7609851674        7.1783237135
  O         7.3452041010        7.4891736176        7.7662745921
       3
 i =       61, time =       30.500, E =       -17.2185124798
  H         7.6828933522        8.2480748831        7.2315099692
  H         7.6597958642        6.7567703359        7.1850446760
  O         7.3455031318        7.4887713841        7.7657152976
       3
 i =       62, time =       31.000, E =       -17.2187124175
  H         7.6811578944        8.2574594694        7.2350270129
  H         7.6552245119        6.7531500356        7.1926680739
  O         7.3458849233        7.4884104393        7.7650175265
       3
 i =       63, time =       31.500, E =       -17.2188955826
  H         7.6783804194        8.2658984609        7.2402743458
  H         7.6499381200        6.7496643353        7.2015236638
  O         7.3463780100        7.4881004626        7.7641331731
       3
 i =       64, time =       32.000, E =       -17.2190552598
  H         7.6748989506        8.2720416432        7.2465947695
  H         7.6448030136        6.7465186831        7.2101396442
  O         7.3469066680        7.4879134660        7.7631963870
       3
 i =       65, time =       32.500, E =       -17.2192103961
  H         7.6704754799        8.2763927096        7.2544247933
  H         7.6395509346        6.7431588143        7.2189440950
  O         7.3475028182        7.4878525638        7.7621527078
       3
 i =       66, time =       33.000, E =       -17.2193362698
  H         7.6649319918        8.2791938209        7.2640829342
  H         7.6340595505        6.7391003669        7.2281189867
  O         7.3481854432        7.4879329424        7.7609706007
       3
 i =       67, time =       33.500, E =       -17.2193760503
  H         7.6588315809        8.2804372339        7.2746037969
  H         7.6288953568        6.7343705986        7.2366956709
  O         7.3488834580        7.4881533089        7.7597718815
       3
 i =       68, time =       34.000, E =       -17.2192640993
  H         7.6516511268        8.2806342792        7.2869128580
  H         7.6235739605        6.7281670534        7.2454571463
  O         7.3496603252        7.4885319995        7.7584488809
       3
 i =       69, time =       34.500, E =       -17.2189813850
  H         7.6449495008        8.2803496584        7.2983734073
  H         7.6191129768        6.7214907824        7.2527177739
  O         7.3503537845        7.4889703464        7.7572738965
       3
 i =       70, time =       35.000, E =       -17.2185835043
  H         7.6390806167        8.2802995038        7.3084216951
  H         7.6155253449        6.7145148753        7.2584649591
  O         7.3509406457        7.4894124135        7.7562832526
       3
 i =       71, time =       35.500, E =       -17.2181108911
  H         7.6338575880        8.2811490757        7.3174168133
  H         7.6124794113        6.7069022212        7.2632470729
  O         7.3514534703        7.4898376287        7.7554197896
       3
 i =       72, time =       36.000, E =       -17.2177091470
  H         7.6300837023        8.2833247820        7.3240077445
  H         7.6102360898        6.6998397247        7.2666856339
  O         7.3518251488        7.4901444391        7.7547924588
       3
 i =       73, time =       36.500, E =       -17.2174534173
  H         7.6278139370        8.2870116466        7.3281106618
  H         7.6086729997        6.6936859698        7.2690110492
  O         7.3520597282        7.4902986813        7.7543920063
       3
 i =       74, time =       37.000, E =       -17.2173571414
  H         7.6270258634        8.2920066920        7.3297703852
  H         7.6077130834        6.6888629476        7.2703977386
  O         7.3521632606        7.4902866084        7.7542046039
       3
 i =       75, time =       37.500, E =       -17.2173670073
  H         7.6275244377        8.2982021822        7.3292777510
  H         7.6072043667        6.6853607450        7.2710697224
  O         7.3521574494        7.4901156598        7.7541978084
       3
 i =       76, time =       38.000, E =       -17.2174174697
  H         7.6290666438        8.3045001458        7.3270039684
  H         7.6071435738        6.6836407038        7.2710773760
  O         7.3520576621        7.4898259611        7.7543450514
       3
 i =       77, time =       38.500, E =       -17.2174652759
  H         7.6315660204        8.3107493180        7.3231084555
  H         7.6075179650        6.6836625973        7.2704585354
  O         7.3518700352        7.4894296031        7.7546338993
       3
 i =       78, time =       39.000, E =       -17.2174899393
  H         7.6348786226        8.3163044501        7.3177601918
  H         7.6083618373        6.6855690900        7.2691264938
  O         7.3516013704        7.4889582932        7.7550591588
       3
 i =       79, time =       39.500, E =       -17.2175193845
  H         7.6384935724        8.3198581002        7.3117972331
  H         7.6096765367        6.6891927852        7.2671072207
  O         7.3512836559        7.4885049929        7.7555663850
       3
 i =       80, time =       40.000, E =       -17.2176195518
  H         7.6419005397        8.3206019547        7.3060088526
  H         7.6113855433        6.6940442470        7.2644646181
  O         7.3509538181        7.4881514965        7.7561018305
       3
 i =       81, time =       40.500, E =       -17.2178456773
  H         7.6451105464        8.3182973127        7.3003811798
  H         7.6136207036        6.7000682618        7.2609893765
  O         7.3506028110        7.4879163302        7.7566795709
       3
 i =       82, time =       41.000, E =       -17.2182044919
  H         7.6480192679        8.3128435630        7.2950871577
  H         7.6164271009        6.7069565810        7.2565866279
  O         7.3502343478        7.4878252567        7.7572947130
       3
 i =       83, time =       41.500, E =       -17.2186611451
  H         7.6506679152        8.3042084913        7.2900545775
  H         7.6199206272        6.7145823122        7.2510507062
  O         7.3498385156        7.4878883088        7.7579647951
       3
 i =       84, time =       42.000, E =       -17.2191224261
  H         7.6530969605        8.2927127782        7.2852328670
  H         7.6241352884        6.7226661807        7.2443072225
  O         7.3494105613        7.4881029140        7.7586977193
       3
 i =       85, time =       42.500, E =       -17.2194658832
  H         7.6554452268        8.2788320945        7.2804119920
  H         7.6291113527        6.7310291813        7.2362767131
  O         7.3489391426        7.4884504306        7.7595117447
       3
 i =       86, time =       43.000, E =       -17.2195714577
  H         7.6576984187        8.2646698130        7.2757378584
  H         7.6343447665        6.7387369945        7.2277676806
  O         7.3484568411        7.4888572444        7.7603467485
       3
 i =       87, time =       43.500, E =       -17.2194322853
  H         7.6601584407        8.2507757774        7.2707256128
  H         7.6398814424        6.7459198507        7.2187086159
  O         7.3479417082        7.4892804614        7.7612377696
       3
 i =       88, time =       44.000, E =       -17.2190957940
  H         7.6630888850        8.2379821451        7.2649721818
  H         7.6456334055        6.7526035074        7.2092512077
  O         7.3473826172        7.4896660005        7.7622006188
       3
 i =       89, time =       44.500, E =       -17.2186779741
  H         7.6666007670        8.2274872967        7.2583568860
  H         7.6512643909        6.7586102944        7.1999608462
  O         7.3467936814        7.4899495698        7.7632072576
       3
 i =       90, time =       45.000, E =       -17.2182907355
  H         7.6707649547        8.2198918839        7.2507931563
  H         7.6565584694        6.7639602305        7.1912087291
  O         7.3461840031        7.4900921177        7.7642397261
       3
 i =       91, time =       45.500, E =       -17.2180212408
  H         7.6751607329        8.2159029086        7.2430418303
  H         7.6609087722        6.7682909188        7.1840132523
  O         7.3456183159        7.4900719862        7.7651858941
       3
 i =       92, time =       46.000, E =       -17.2178209830
  H         7.6800271211        8.2148419603        7.2346546238
  H         7.6646187481        6.7721101598        7.1778847334
  O         7.3450625536        7.4898999305        7.7661048029
       3
 i =       93, time =       46.500, E =       -17.2176265384
  H         7.6850313134        8.2162850325        7.2261765468
  H         7.6675275412        6.7754162656        7.1730985336
  O         7.3445478959        7.4896027930        7.7669447082
       3
 i =       94, time =       47.000, E =       -17.2173757748
  H         7.6899761909        8.2196772908        7.2179127586
  H         7.6696283379        6.7783198439        7.1696726340
  O         7.3440873108        7.4892085657        7.7676852028
       3
 i =       95, time =       47.500, E =       -17.2170499317
  H         7.6945462597        8.2244129975        7.2103680935
  H         7.6708701609        6.7808296492        7.1676945616
  O         7.3437040106        7.4887548578        7.7682889427
       3
 i =       96, time =       48.000, E =       -17.2167312118
  H         7.6980023788        8.2294073215        7.2047446955
  H         7.6711308195        6.7826793362        7.1673577035
  O         7.3434523905        7.4883267744        7.7686680189
       3
 i =       97, time =       48.500, E =       -17.2165721540
  H         7.6996333062        8.2332933247        7.2021805772
  H         7.6704856971        6.7835502023        7.1685143319
  O         7.3433726660        7.4880304380        7.7687601075
       3
 i =       98, time =       49.000, E =       -17.2166138132
  H         7.6996809589        8.2363471719        7.2022774569
  H         7.6689921335        6.7835470621        7.1710720203
  O         7.3434461441        7.4878417172        7.7685962230
       3
 i =       99, time =       49.500, E =       -17.2168829925
  H         7.6980691760        8.2385207837        7.2051625582
  H         7.6666504448        6.7825264589        7.1750216021
  O         7.3436777423        7.4877725597        7.7681690099
       3
 i =      100, time =       50.000, E =       -17.2173292309
  H         7.6949613956        8.2396117727        7.2105443200
  H         7.6637546037        6.7804265712        7.1798562720
  O         7.3440387895        7.4878394832        7.7675288436
       3
 i =      101, time =       50.500, E =       -17.2178980556
  H         7.6903351834        8.2398417055        7.2184736660
  H         7.6602654346        6.7770146828        7.1856295228
  O         7.3445332836        7.4880430737        7.7666692160
       3
 i =      102, time =       51.000, E =       -17.2184823753
  H         7.6843203622        8.2395306747        7.2287467811
  H         7.6562319163        6.7721156208        7.1922474548
  O         7.3451500960        7.4883740848        7.7656089496
       3
 i =      103, time =       51.500, E =       -17.2189411993
  H         7.6774197261        8.2391983539        7.2405333806
  H         7.6518799383        6.7658354665        7.1993299534
  O         7.3458434673        7.4887929931        7.7644243436
       3
 i =      104, time =       52.000, E =       -17.2191951684
  H         7.6698702335        8.2395033122        7.2534657004
  H         7.6471911436        6.7580711010        7.2069028073
  O         7.3465997483        7.4892647459        7.7631369354
       3
 i =      105, time =       52.500, E =       -17.2192296213
  H         7.6628911727        8.2411177608        7.2654964657
  H         7.6427136219        6.7498097284        7.2140859073
  O         7.3473077165        7.4896847701        7.7619310914
       3
 i =      106, time =       53.000, E =       -17.2191398444
  H         7.6563390867        8.2447604800        7.2769122672
  H         7.6381443591        6.7406983234        7.2213774788
  O         7.3479954672        7.4900300873        7.7607572780
       3
 i =      107, time =       53.500, E =       -17.2190040969
  H         7.6501911917        8.2511752430        7.2877952680
  H         7.6332493109        6.7305343675        7.2291663482
  O         7.3486791751        7.4902666617        7.7595857734
       3
 i =      108, time =       54.000, E =       -17.2189081113
  H         7.6455462581        8.2595350803        7.2962195997
  H         7.6287725520        6.7212122141        7.2362891708
  O         7.3492427350        7.4903273256        7.7586111749
       3
 i =      109, time =       54.500, E =       -17.2188403419
  H         7.6420476541        8.2701071120        7.3028112516
  H         7.6244014015        6.7124096786        7.2432618064
  O         7.3497281429        7.4902156666        7.7577615168
       3
 i =      110, time =       55.000, E =       -17.2187181858
  H         7.6395539197        8.2823914117        7.3077836152
  H         7.6201232810        6.7043751385        7.2501197815
  O         7.3501450240        7.4899475872        7.7570210822
       3
 i =      111, time =       55.500, E =       -17.2184546596
  H         7.6378834454        8.2953910307        7.3113898523
  H         7.6160263461        6.6974629746        7.2567323556
  O         7.3504992082        7.4895635798        7.7563821123
       3
 i =      112, time =       56.000, E =       -17.2180173718
  H         7.6367737000        8.3081338260        7.3140228805
  H         7.6121594861        6.6918430620        7.2630253842
  O         7.3508041250        7.4891141570        7.7558244857
       3
 i =      113, time =       56.500, E =       -17.2174731415
  H         7.6359952447        8.3192439661        7.3159956783
  H         7.6087114641        6.6877686764        7.2686904381
  O         7.3510622731        7.4886700395        7.7553478845
       3
 i =      114, time =       57.000, E =       -17.2169367527
  H         7.6353242499        8.3278769897        7.3176422236
  H         7.6057645657        6.6852214923        7.2735856827
  O         7.3512825177        7.4882856233        7.7549401964
       3
 i =      115, time =       57.500, E =       -17.2165359118
  H         7.6346087293        8.3333186730        7.3191812315
  H         7.6034382539        6.6841305790        7.2775029297
  O         7.3514668557        7.4880104063        7.7546007721
       3
 i =      116, time =       58.000, E =       -17.2164405064
  H         7.6339774164        8.3342337101        7.3203292645
  H         7.6023528513        6.6844546761        7.2793930501
  O         7.3515680286        7.4879311272        7.7544135891
       3
 i =      117, time =       58.500, E =       -17.2165832323
  H         7.6333434490        8.3317493391        7.3212725797
  H         7.6021509013        6.6857618645        7.2798154154
  O         7.3516138735        7.4880040120        7.7543317310
       3
 i =      118, time =       59.000, E =       -17.2169159717
  H         7.6326652713        8.3259515873        7.3221190916
  H         7.6027509095        6.6880840379        7.2789418203
  O         7.3516120467        7.4882216502        7.7543376188
       3
 i =      119, time =       59.500, E =       -17.2173259019
  H         7.6320972949        8.3175723267        7.3226103675
  H         7.6041216447        6.6912006110        7.2767799000
  O         7.3515547107        7.4885518494        7.7544470914
       3
 i =      120, time =       60.000, E =       -17.2176754576
  H         7.6319034214        8.3084608840        7.3224363866
  H         7.6060551226        6.6945864013        7.2736865426
  O         7.3514382541        7.4889112288        7.7546572293
       3
 i =      121, time =       60.500, E =       -17.2179465134
  H         7.6322386790        8.2991110086        7.3213279040
  H         7.6085242811        6.6982628023        7.2696801615
  O         7.3512545141        7.4892673853        7.7549838542
       3
 i =      122, time =       61.000, E =       -17.2181683656
  H         7.6333777940        8.2890129818        7.3188022069
  H         7.6118353790        6.7026991335        7.2642790657
  O         7.3509667784        7.4896229178        7.7554877350
       3
 i =      123, time =       61.500, E =       -17.2183558183
  H         7.6354804436        8.2796677035        7.3146726751
  H         7.6157117216        6.7075693382        7.2579376999
  O         7.3505822597        7.4899038639        7.7561520185
       3
 i =      124, time =       62.000, E =       -17.2185747357
  H         7.6387083243        8.2717141658        7.3086995768
  H         7.6200758351        6.7128576336        7.2507875754
  O         7.3500955452        7.4900709871        7.7569835103
       3
 i =      125, time =       62.500, E =       -17.2188401741
  H         7.6426341464        8.2664588621        7.3016882669
  H         7.6242464021        6.7178399607        7.2439512908
  O         7.3495763453        7.4900876142        7.7578607174
       3
 i =      126, time =       63.000, E =       -17.2191630176
  H         7.6476365433        8.2631024548        7.2929455623
  H         7.6286659570        6.7231396225        7.2367079821
  O         7.3489729536        7.4899648482        7.7588726760
       3
 i =      127, time =       63.500, E =       -17.2194631592
  H         7.6537429434        8.2612654258        7.2824029376
  H         7.6334207215        6.7289496936        7.2289210080
  O         7.3482781281        7.4897144898        7.7600322739
       3
 i =      128, time =       64.000, E =       -17.2196163329
  H         7.6603217313        8.2605478023        7.2711174427
  H         7.6381478780        6.7349122824        7.2211894931
  O         7.3475543923        7.4893843586        7.7612351497
       3
 i =      129, time =       64.500, E =       -17.2195640882
  H         7.6670781567        8.2602946476        7.2595559731
  H         7.6428002526        6.7410398944        7.2135945159
  O         7.3468232317        7.4890149838        7.7624467595
       3
 i =      130, time =       65.000, E =       -17.2193075373
  H         7.6736545641        8.2598587680        7.2482931234
  H         7.6472975688        6.7472869708        7.2062706056
  O         7.3461122376        7.4886500585        7.7636223983
       3
 i =      131, time =       65.500, E =       -17.2188959235
  H         7.6798122542        8.2586583116        7.2377031467
  H         7.6516328149        6.7536911247        7.1992321467
  O         7.3454369318        7.4883238881        7.7647375224
