       8
 i =        1, E =       -44.9761463104
  C         0.8379207333        2.7403806177        2.7403992052
  C        -0.0272471076       -0.0272538853       -0.0272443975
  C         0.8968256498        0.8968293838        0.8968205151
  C        -0.0662045002        1.7996911082        1.7996721767
  C         2.7403755214        2.7403929280        0.8379313809
  C         1.7996645475       -0.0662099516        1.7996898339
  C         2.7403998810        0.8379223273        2.7403744946
  C         1.7996927260        1.7996744233       -0.0662160147
       8
 i =        2, E =       -44.9792080696
  C         0.8767113843        2.7368580126        2.7368553834
  C        -0.0706867067       -0.0706854279       -0.0706864851
  C         0.8684276443        0.8684273964        0.8684293254
  C        -0.0574410707        1.8019461722        1.8019511952
  C         2.7368592141        2.7368548417        0.8767091656
  C         1.8019514643       -0.0574408845        1.8019457295
  C         2.7368554177        0.8767111888        2.7368589252
  C         1.8019449346        1.8019504421       -0.0574397698
       8
 i =        3, E =       -44.9796218360
  C         0.8662301820        2.7304111489        2.7304115630
  C        -0.0686622219       -0.0686623323       -0.0686622169
  C         0.8667512141        0.8667510208        0.8667514960
  C        -0.0657480653        1.7977876168        1.7977882588
  C         2.7304112752        2.7304117558        0.8662299813
  C         1.7977883475       -0.0657477640        1.7977879308
  C         2.7304117206        0.8662301927        2.7304117487
  C         1.7977879289        1.7977882874       -0.0657475905
       8
 i =        4, E =       -44.9798266003
  C         0.8547146715        2.7208716609        2.7208718067
  C        -0.0751389208       -0.0751388781       -0.0751389052
  C         0.8569497521        0.8569496261        0.8569496235
  C        -0.0770234365        1.7895025302        1.7895023280
  C         2.7208714158        2.7208719085        0.8547149049
  C         1.7895022728       -0.0770234583        1.7895027029
  C         2.7208715985        0.8547146147        2.7208715133
  C         1.7895029983        1.7895022260       -0.0770234018
       8
 i =        5, E =       -44.9798414473
  C         0.8548120436        2.7199543492        2.7199546572
  C        -0.0771338035       -0.0771340693       -0.0771338203
  C         0.8551113813        0.8551113493        0.8551112402
  C        -0.0775783165        1.7878577559        1.7878571410
  C         2.7199541660        2.7199547427        0.8548122651
  C         1.7878571411       -0.0775782654        1.7878578639
  C         2.7199547531        0.8548120397        2.7199543542
  C         1.7878578704        1.7878572655       -0.0775783877
       8
 i =        6, E =       -44.9798427661
  C         0.8548388479        2.7198220454        2.7198217786
  C        -0.0776659252       -0.0776657225       -0.0776659217
  C         0.8547603157        0.8547603054        0.8547603956
  C        -0.0777184068        1.7873099647        1.7873103370
  C         2.7198221455        2.7198216750        0.8548387356
  C         1.7873103128       -0.0777184783        1.7873099225
  C         2.7198216392        0.8548388462        2.7198219970
  C         1.7873099516        1.7873102153       -0.0777183422
       8
 i =        7, E =       -44.9798427656
  C         0.8548388479        2.7198220454        2.7198217786
  C        -0.0776659252       -0.0776657225       -0.0776659217
  C         0.8547603157        0.8547603054        0.8547603956
  C        -0.0777184068        1.7873099647        1.7873103370
  C         2.7198221455        2.7198216750        0.8548387356
  C         1.7873103128       -0.0777184783        1.7873099225
  C         2.7198216392        0.8548388462        2.7198219970
  C         1.7873099516        1.7873102153       -0.0777183422
